/*---------------------------------------------------------------------------*\
| =========                 |                                                 |
| \\      /  F ield         | OpenFOAM: The Open Source CFD Toolbox           |
|  \\    /   O peration     | Version:  2312                                  |
|   \\  /    A nd           | Website:  www.openfoam.com                      |
|    \\/     M anipulation  |                                                 |
\*---------------------------------------------------------------------------*/
Build  : _e651d635-20240208 OPENFOAM=2312 patch=240220 version=2312
Arch   : "LSB;label=32;scalar=64"
Exec   : simpleHFDIBRANSFoam
Date   : Jul 15 2025
Time   : 09:56:58
Host   : summit
PID    : 76474
I/O    : uncollated
Case   : /home/vecerniv/tmg/openHFDIBRANS/bfs/bottom_grading_meshes/gradBotMeshOne/openHFDIBRANS_kO
nProcs : 1
trapFpe: Floating point exception trapping enabled (FOAM_SIGFPE).
fileModificationChecking : Monitoring run-time modified files using timeStampMaster (fileModificationSkew 5, maxFileModificationPolls 20)
allowSystemOperations : Allowing user-supplied system call operations

// * * * * * * * * * * * * * * * * * * * * * * * * * * * * * * * * * * * * * //
Create time

Create mesh for time = 0


SIMPLE: convergence criteria
    field p	 tolerance 1e-05

Reading field p

Reading field U

Creating field Ui

Reading field lambda

Creating field surface

Reading field f

Reading/calculating face flux field phi


Reading g
Selecting incompressible transport model Newtonian
Selecting turbulence model type HFDIBRAS
Selecting HFDIBRAS turbulence model HFDIBKOmega
HFDIBRAS
{
    HFDIBRASModel   HFDIBKOmega;
    turbulence      on;
    printCoeffs     on;
    disGSurfaceType setValue;
    disGBoundaryValue 1;
    kSurfaceType    setValue;
    kBoundaryValue  0;
    tolKEqn         1e-08;
    maxKEqnIters    10;
    betaStar        0.09;
    beta            0.072;
    gamma           0.52;
    alphaK          0.5;
    alphaOmega      0.5;
}

No MRF models present

No finite volume options present

Starting time loop

Time = 1

DILUPBiCG:  Solving for Ux, Initial residual = 1, Final residual = 8.16506591e-11, No Iterations 13
DILUPBiCG:  Solving for Uy, Initial residual = 0.8925704483, Final residual = 5.431149643e-11, No Iterations 14
HFDIBRANS: Max error in U -> Ui is 20.19494668
DILUPBiCG:  Solving for Ux, Initial residual = 0.05613028208, Final residual = 5.811709504e-11, No Iterations 13
DILUPBiCG:  Solving for Uy, Initial residual = 2.873035063e-11, Final residual = 2.873035063e-11, No Iterations 0
HFDIBRANS: Max error in U -> Ui is 2.196456023
DILUPBiCG:  Solving for Ux, Initial residual = 0.004169327219, Final residual = 6.432243727e-11, No Iterations 12
DILUPBiCG:  Solving for Uy, Initial residual = 2.873035063e-11, Final residual = 2.873035063e-11, No Iterations 0
HFDIBRANS: Max error in U -> Ui is 0.2380550147
DILUPBiCG:  Solving for Ux, Initial residual = 0.0002844838304, Final residual = 7.552091176e-11, No Iterations 10
DILUPBiCG:  Solving for Uy, Initial residual = 2.873035063e-11, Final residual = 2.873035063e-11, No Iterations 0
HFDIBRANS: Max error in U -> Ui is 0.02305333383
DILUPBiCG:  Solving for Ux, Initial residual = 1.957880825e-05, Final residual = 2.977033046e-11, No Iterations 9
DILUPBiCG:  Solving for Uy, Initial residual = 2.873035063e-11, Final residual = 2.873035063e-11, No Iterations 0
HFDIBRANS: Max error in U -> Ui is 0.002108778556
DILUPBiCG:  Solving for Ux, Initial residual = 1.36301034e-06, Final residual = 1.655986185e-11, No Iterations 8
DILUPBiCG:  Solving for Uy, Initial residual = 2.873035063e-11, Final residual = 2.873035063e-11, No Iterations 0
HFDIBRANS: Max error in U -> Ui is 0.0001866638699
DILUPBiCG:  Solving for Ux, Initial residual = 9.613894912e-08, Final residual = 4.161265078e-11, No Iterations 6
DILUPBiCG:  Solving for Uy, Initial residual = 2.873035063e-11, Final residual = 2.873035063e-11, No Iterations 0
HFDIBRANS: Max error in U -> Ui is 1.619073304e-05
DILUPBiCG:  Solving for Ux, Initial residual = 6.895090512e-09, Final residual = 4.471904002e-11, No Iterations 4
DILUPBiCG:  Solving for Uy, Initial residual = 2.873035063e-11, Final residual = 2.873035063e-11, No Iterations 0
HFDIBRANS: Max error in U -> Ui is 1.387314622e-06
DILUPBiCG:  Solving for Ux, Initial residual = 5.114516945e-10, Final residual = 6.81125301e-11, No Iterations 2
DILUPBiCG:  Solving for Uy, Initial residual = 2.873035063e-11, Final residual = 2.873035063e-11, No Iterations 0
HFDIBRANS: Max error in U -> Ui is 1.188996648e-07
DILUPBiCG:  Solving for Ux, Initial residual = 4.855963385e-11, Final residual = 4.855963385e-11, No Iterations 0
DILUPBiCG:  Solving for Uy, Initial residual = 2.873035063e-11, Final residual = 2.873035063e-11, No Iterations 0
HFDIBRANS: Max error in U -> Ui is 0
HFDIBRANS: U converged to Ui within max tolerance 1e-08
GAMG:  Solving for p, Initial residual = 1, Final residual = 8.727394815e-09, No Iterations 42
time step continuity errors : sum local = 2.620674109e-09, global = 8.169532764e-11, cumulative = 8.169532764e-11
DILUPBiCG:  Solving for omega, Initial residual = 0.01228432021, Final residual = 9.461599475e-21, No Iterations 29
DILUPBiCG:  Solving for k, Initial residual = 1, Final residual = 2.751736403e-21, No Iterations 31
HFDIBRANS: Max error in k -> ki is 0.03029535682
DILUPBiCG:  Solving for k, Initial residual = 0.004011927508, Final residual = 4.12581327e-21, No Iterations 24
HFDIBRANS: Max error in k -> ki is 0.0004091537133
DILUPBiCG:  Solving for k, Initial residual = 0.0002269001559, Final residual = 1.318907266e-21, No Iterations 23
HFDIBRANS: Max error in k -> ki is 0.000261462883
DILUPBiCG:  Solving for k, Initial residual = 1.32800615e-05, Final residual = 1.643729373e-21, No Iterations 22
HFDIBRANS: Max error in k -> ki is 7.561175093e-07
DILUPBiCG:  Solving for k, Initial residual = 7.981761907e-07, Final residual = 1.606714365e-21, No Iterations 20
HFDIBRANS: Max error in k -> ki is 2.233805849e-06
DILUPBiCG:  Solving for k, Initial residual = 4.949472243e-08, Final residual = 5.533808142e-21, No Iterations 18
HFDIBRANS: Max error in k -> ki is -0
HFDIBRANS: k converged to ki within max tolerance 1e-08
ExecutionTime = 1.24 s  ClockTime = 1 s

Time = 2

DILUPBiCG:  Solving for Ux, Initial residual = 0.06874323205, Final residual = 5.968107967e-11, No Iterations 13
DILUPBiCG:  Solving for Uy, Initial residual = 0.2710374874, Final residual = 2.427846516e-11, No Iterations 15
HFDIBRANS: Max error in U -> Ui is 0.7456144868
DILUPBiCG:  Solving for Ux, Initial residual = 8.341226441e-05, Final residual = 6.798003215e-11, No Iterations 9
DILUPBiCG:  Solving for Uy, Initial residual = 0.001685417771, Final residual = 1.250902981e-11, No Iterations 12
HFDIBRANS: Max error in U -> Ui is 0.01121019318
DILUPBiCG:  Solving for Ux, Initial residual = 3.52330857e-07, Final residual = 1.218458098e-11, No Iterations 8
DILUPBiCG:  Solving for Uy, Initial residual = 6.018853862e-06, Final residual = 6.239512841e-11, No Iterations 8
HFDIBRANS: Max error in U -> Ui is 0.0001426621802
DILUPBiCG:  Solving for Ux, Initial residual = 2.439740953e-09, Final residual = 2.834555519e-11, No Iterations 4
DILUPBiCG:  Solving for Uy, Initial residual = 3.164015654e-08, Final residual = 2.778923313e-11, No Iterations 6
HFDIBRANS: Max error in U -> Ui is 1.593551929e-06
DILUPBiCG:  Solving for Ux, Initial residual = 3.149463837e-11, Final residual = 3.149463837e-11, No Iterations 0
DILUPBiCG:  Solving for Uy, Initial residual = 2.829865242e-10, Final residual = 3.909411338e-11, No Iterations 1
HFDIBRANS: Max error in U -> Ui is 3.985539589e-09
HFDIBRANS: U converged to Ui within max tolerance 1e-08
GAMG:  Solving for p, Initial residual = 0.002665939568, Final residual = 9.828237441e-09, No Iterations 32
time step continuity errors : sum local = 1.003966968e-06, global = 1.196462814e-07, cumulative = 1.197279767e-07
DILUPBiCG:  Solving for omega, Initial residual = 0.002123969617, Final residual = 3.230101712e-21, No Iterations 24
DILUPBiCG:  Solving for k, Initial residual = 0.1692554776, Final residual = 3.317741562e-21, No Iterations 26
HFDIBRANS: Max error in k -> ki is 0.000160583746
DILUPBiCG:  Solving for k, Initial residual = 5.143435338e-05, Final residual = 2.707264527e-21, No Iterations 21
HFDIBRANS: Max error in k -> ki is 2.20230023e-05
DILUPBiCG:  Solving for k, Initial residual = 9.718369276e-08, Final residual = 5.973846389e-21, No Iterations 17
HFDIBRANS: Max error in k -> ki is 7.550061933e-10
HFDIBRANS: k converged to ki within max tolerance 1e-08
bounding k, min: -7.550051933e-10 max: 2.670657118 average: 0.009222122499
ExecutionTime = 1.79 s  ClockTime = 1 s

Time = 3

DILUPBiCG:  Solving for Ux, Initial residual = 0.09645919483, Final residual = 9.972963767e-11, No Iterations 13
DILUPBiCG:  Solving for Uy, Initial residual = 0.1773322587, Final residual = 2.866723061e-11, No Iterations 14
HFDIBRANS: Max error in U -> Ui is 2.078895039
DILUPBiCG:  Solving for Ux, Initial residual = 0.0001376771146, Final residual = 1.500449796e-11, No Iterations 10
DILUPBiCG:  Solving for Uy, Initial residual = 0.0003776462892, Final residual = 8.856197333e-11, No Iterations 10
HFDIBRANS: Max error in U -> Ui is 0.009667412594
DILUPBiCG:  Solving for Ux, Initial residual = 3.047761333e-07, Final residual = 2.199417937e-11, No Iterations 7
DILUPBiCG:  Solving for Uy, Initial residual = 1.65704907e-06, Final residual = 4.132380743e-11, No Iterations 8
HFDIBRANS: Max error in U -> Ui is 7.854239273e-05
DILUPBiCG:  Solving for Ux, Initial residual = 8.975459673e-10, Final residual = 4.992721942e-11, No Iterations 2
DILUPBiCG:  Solving for Uy, Initial residual = 9.612592924e-09, Final residual = 3.420799716e-11, No Iterations 5
HFDIBRANS: Max error in U -> Ui is 5.365555519e-07
DILUPBiCG:  Solving for Ux, Initial residual = 5.165833606e-11, Final residual = 5.165833606e-11, No Iterations 0
DILUPBiCG:  Solving for Uy, Initial residual = 9.337843454e-11, Final residual = 9.337843454e-11, No Iterations 0
HFDIBRANS: Max error in U -> Ui is 0
HFDIBRANS: U converged to Ui within max tolerance 1e-08
GAMG:  Solving for p, Initial residual = 0.001727638986, Final residual = 5.02218675e-09, No Iterations 27
time step continuity errors : sum local = 7.561775415e-07, global = 2.784547256e-08, cumulative = 1.475734493e-07
DILUPBiCG:  Solving for omega, Initial residual = 0.00184783599, Final residual = 9.736330973e-21, No Iterations 23
DILUPBiCG:  Solving for k, Initial residual = 0.08829342748, Final residual = 6.592304951e-21, No Iterations 26
HFDIBRANS: Max error in k -> ki is 0.0032939874
DILUPBiCG:  Solving for k, Initial residual = 2.75668922e-05, Final residual = 7.388477024e-22, No Iterations 20
HFDIBRANS: Max error in k -> ki is 1.229361469e-05
DILUPBiCG:  Solving for k, Initial residual = 3.433388204e-08, Final residual = 1.875705806e-21, No Iterations 18
HFDIBRANS: Max error in k -> ki is 8.934193024e-10
HFDIBRANS: k converged to ki within max tolerance 1e-08
bounding k, min: -8.934183024e-10 max: 1.494241286 average: 0.00957187386
ExecutionTime = 2.32 s  ClockTime = 2 s

Time = 4

DILUPBiCG:  Solving for Ux, Initial residual = 0.09483541682, Final residual = 2.759148663e-11, No Iterations 13
DILUPBiCG:  Solving for Uy, Initial residual = 0.1212550499, Final residual = 3.798606424e-11, No Iterations 14
HFDIBRANS: Max error in U -> Ui is 0.5004305816
DILUPBiCG:  Solving for Ux, Initial residual = 5.034335192e-05, Final residual = 8.246549411e-11, No Iterations 9
DILUPBiCG:  Solving for Uy, Initial residual = 0.000107698623, Final residual = 3.022792319e-11, No Iterations 10
HFDIBRANS: Max error in U -> Ui is 0.004752769307
DILUPBiCG:  Solving for Ux, Initial residual = 1.464111851e-07, Final residual = 5.636770611e-11, No Iterations 7
DILUPBiCG:  Solving for Uy, Initial residual = 4.435754715e-07, Final residual = 6.032753971e-11, No Iterations 7
HFDIBRANS: Max error in U -> Ui is 4.605082723e-05
DILUPBiCG:  Solving for Ux, Initial residual = 6.909430126e-10, Final residual = 6.005015914e-11, No Iterations 2
DILUPBiCG:  Solving for Uy, Initial residual = 2.781090585e-09, Final residual = 4.723530637e-11, No Iterations 4
HFDIBRANS: Max error in U -> Ui is 3.877177723e-07
DILUPBiCG:  Solving for Ux, Initial residual = 6.332251172e-11, Final residual = 6.332251172e-11, No Iterations 0
DILUPBiCG:  Solving for Uy, Initial residual = 2.989995262e-11, Final residual = 2.989995262e-11, No Iterations 0
HFDIBRANS: Max error in U -> Ui is 0
HFDIBRANS: U converged to Ui within max tolerance 1e-08
GAMG:  Solving for p, Initial residual = 0.001998767823, Final residual = 5.681995816e-09, No Iterations 31
time step continuity errors : sum local = 9.157533871e-07, global = 1.691901067e-08, cumulative = 1.644924599e-07
DILUPBiCG:  Solving for omega, Initial residual = 0.001394250469, Final residual = 3.295429766e-21, No Iterations 24
DILUPBiCG:  Solving for k, Initial residual = 0.05139073516, Final residual = 1.894497739e-21, No Iterations 26
HFDIBRANS: Max error in k -> ki is 0.001843979842
DILUPBiCG:  Solving for k, Initial residual = 1.104923456e-05, Final residual = 5.959412502e-21, No Iterations 20
HFDIBRANS: Max error in k -> ki is 6.134610569e-06
DILUPBiCG:  Solving for k, Initial residual = 1.287535368e-08, Final residual = 5.116672495e-21, No Iterations 17
HFDIBRANS: Max error in k -> ki is 1.47038452e-10
HFDIBRANS: k converged to ki within max tolerance 1e-08
bounding k, min: -1.47037452e-10 max: 0.7836811985 average: 0.009868348077
ExecutionTime = 2.85 s  ClockTime = 2 s

Time = 5

DILUPBiCG:  Solving for Ux, Initial residual = 0.0755634525, Final residual = 3.32606403e-11, No Iterations 13
DILUPBiCG:  Solving for Uy, Initial residual = 0.08140900861, Final residual = 9.730007703e-11, No Iterations 14
HFDIBRANS: Max error in U -> Ui is 0.4698584932
DILUPBiCG:  Solving for Ux, Initial residual = 1.476759484e-05, Final residual = 6.066221731e-11, No Iterations 9
DILUPBiCG:  Solving for Uy, Initial residual = 5.399193299e-05, Final residual = 7.539517516e-11, No Iterations 9
HFDIBRANS: Max error in U -> Ui is 0.004067670805
DILUPBiCG:  Solving for Ux, Initial residual = 6.270477846e-08, Final residual = 5.483713775e-11, No Iterations 7
DILUPBiCG:  Solving for Uy, Initial residual = 3.349519504e-07, Final residual = 5.507406485e-11, No Iterations 7
HFDIBRANS: Max error in U -> Ui is 4.857108482e-05
DILUPBiCG:  Solving for Ux, Initial residual = 4.160517551e-10, Final residual = 2.121932216e-11, No Iterations 3
DILUPBiCG:  Solving for Uy, Initial residual = 2.603825452e-09, Final residual = 3.612188763e-11, No Iterations 3
HFDIBRANS: Max error in U -> Ui is 4.492839984e-07
DILUPBiCG:  Solving for Ux, Initial residual = 1.873928161e-11, Final residual = 1.873928161e-11, No Iterations 0
DILUPBiCG:  Solving for Uy, Initial residual = 3.554498818e-11, Final residual = 3.554498818e-11, No Iterations 0
HFDIBRANS: Max error in U -> Ui is 0
HFDIBRANS: U converged to Ui within max tolerance 1e-08
GAMG:  Solving for p, Initial residual = 0.002946326072, Final residual = 9.52748162e-09, No Iterations 31
time step continuity errors : sum local = 1.331728079e-06, global = 1.173392766e-08, cumulative = 1.762263876e-07
DILUPBiCG:  Solving for omega, Initial residual = 0.001155506433, Final residual = 9.779668522e-21, No Iterations 22
DILUPBiCG:  Solving for k, Initial residual = 0.03747506552, Final residual = 1.236030966e-21, No Iterations 26
HFDIBRANS: Max error in k -> ki is 0.002185902092
DILUPBiCG:  Solving for k, Initial residual = 6.118413195e-06, Final residual = 5.384335614e-22, No Iterations 18
HFDIBRANS: Max error in k -> ki is 3.455636642e-05
DILUPBiCG:  Solving for k, Initial residual = 6.473724413e-09, Final residual = 2.489661807e-21, No Iterations 15
HFDIBRANS: Max error in k -> ki is 3.769720385e-10
HFDIBRANS: k converged to ki within max tolerance 1e-08
bounding k, min: -3.769710385e-10 max: 0.4841756492 average: 0.01017494569
ExecutionTime = 3.46 s  ClockTime = 3 s

Time = 6

DILUPBiCG:  Solving for Ux, Initial residual = 0.04904055303, Final residual = 4.743940356e-11, No Iterations 12
DILUPBiCG:  Solving for Uy, Initial residual = 0.04980300072, Final residual = 1.317813354e-11, No Iterations 14
HFDIBRANS: Max error in U -> Ui is 0.2730006941
DILUPBiCG:  Solving for Ux, Initial residual = 1.240244097e-05, Final residual = 8.992575727e-11, No Iterations 9
DILUPBiCG:  Solving for Uy, Initial residual = 7.164646428e-05, Final residual = 6.784381763e-11, No Iterations 10
HFDIBRANS: Max error in U -> Ui is 0.0161721485
DILUPBiCG:  Solving for Ux, Initial residual = 1.788266648e-07, Final residual = 9.217285878e-11, No Iterations 7
DILUPBiCG:  Solving for Uy, Initial residual = 1.413143655e-06, Final residual = 5.693868622e-11, No Iterations 8
HFDIBRANS: Max error in U -> Ui is 0.0009757987178
DILUPBiCG:  Solving for Ux, Initial residual = 7.725369564e-09, Final residual = 7.460836957e-11, No Iterations 5
DILUPBiCG:  Solving for Uy, Initial residual = 5.670199061e-08, Final residual = 1.839614728e-11, No Iterations 7
HFDIBRANS: Max error in U -> Ui is 5.494372996e-05
DILUPBiCG:  Solving for Ux, Initial residual = 4.757677434e-10, Final residual = 9.06241896e-11, No Iterations 2
DILUPBiCG:  Solving for Uy, Initial residual = 2.863075513e-09, Final residual = 2.439742139e-11, No Iterations 5
HFDIBRANS: Max error in U -> Ui is 3.517573389e-06
DILUPBiCG:  Solving for Ux, Initial residual = 5.521759415e-11, Final residual = 5.521759415e-11, No Iterations 0
DILUPBiCG:  Solving for Uy, Initial residual = 1.693290358e-10, Final residual = 5.900369863e-11, No Iterations 1
HFDIBRANS: Max error in U -> Ui is 4.334831482e-08
DILUPBiCG:  Solving for Ux, Initial residual = 5.521759415e-11, Final residual = 5.521759415e-11, No Iterations 0
DILUPBiCG:  Solving for Uy, Initial residual = 5.044486388e-11, Final residual = 5.044486388e-11, No Iterations 0
HFDIBRANS: Max error in U -> Ui is 0
HFDIBRANS: U converged to Ui within max tolerance 1e-08
GAMG:  Solving for p, Initial residual = 0.004427953463, Final residual = 9.327610722e-09, No Iterations 32
time step continuity errors : sum local = 9.460098859e-07, global = 3.191510853e-08, cumulative = 2.081414961e-07
DILUPBiCG:  Solving for omega, Initial residual = 0.0009002357569, Final residual = 9.296416675e-21, No Iterations 22
DILUPBiCG:  Solving for k, Initial residual = 0.02989550181, Final residual = 2.387427414e-21, No Iterations 25
HFDIBRANS: Max error in k -> ki is 0.005636976362
DILUPBiCG:  Solving for k, Initial residual = 2.728601023e-06, Final residual = 5.008338752e-21, No Iterations 17
HFDIBRANS: Max error in k -> ki is 5.634811737e-06
DILUPBiCG:  Solving for k, Initial residual = 3.941672403e-09, Final residual = 6.292487945e-21, No Iterations 14
HFDIBRANS: Max error in k -> ki is 1.241367387e-07
DILUPBiCG:  Solving for k, Initial residual = 9.682958788e-12, Final residual = 9.238648299e-22, No Iterations 12
HFDIBRANS: Max error in k -> ki is 9.949746247e-13
HFDIBRANS: k converged to ki within max tolerance 1e-08
bounding k, min: -9.939746247e-13 max: 0.4834388631 average: 0.01045879829
ExecutionTime = 4.06 s  ClockTime = 4 s

Time = 7

DILUPBiCG:  Solving for Ux, Initial residual = 0.02359332141, Final residual = 5.478462826e-12, No Iterations 14
DILUPBiCG:  Solving for Uy, Initial residual = 0.03175409423, Final residual = 9.657541373e-12, No Iterations 15
HFDIBRANS: Max error in U -> Ui is 0.4349437065
DILUPBiCG:  Solving for Ux, Initial residual = 1.880749719e-05, Final residual = 8.248649548e-12, No Iterations 11
DILUPBiCG:  Solving for Uy, Initial residual = 9.537847642e-05, Final residual = 3.861435572e-11, No Iterations 11
HFDIBRANS: Max error in U -> Ui is 0.006309802847
DILUPBiCG:  Solving for Ux, Initial residual = 1.384826723e-07, Final residual = 5.638254593e-11, No Iterations 7
DILUPBiCG:  Solving for Uy, Initial residual = 8.690393613e-07, Final residual = 1.075584469e-11, No Iterations 9
HFDIBRANS: Max error in U -> Ui is 8.988409316e-05
DILUPBiCG:  Solving for Ux, Initial residual = 1.518936525e-09, Final residual = 7.967812878e-11, No Iterations 3
DILUPBiCG:  Solving for Uy, Initial residual = 9.81688336e-09, Final residual = 4.362614848e-11, No Iterations 5
HFDIBRANS: Max error in U -> Ui is 1.072947045e-06
DILUPBiCG:  Solving for Ux, Initial residual = 8.396828758e-11, Final residual = 8.396828758e-11, No Iterations 0
DILUPBiCG:  Solving for Uy, Initial residual = 1.584165223e-10, Final residual = 3.34270656e-11, No Iterations 1
HFDIBRANS: Max error in U -> Ui is 7.635998042e-09
HFDIBRANS: U converged to Ui within max tolerance 1e-08
GAMG:  Solving for p, Initial residual = 0.009824234536, Final residual = 5.110012603e-09, No Iterations 33
time step continuity errors : sum local = 2.357494815e-07, global = -1.942186213e-09, cumulative = 2.061993099e-07
DILUPBiCG:  Solving for omega, Initial residual = 0.0008197257914, Final residual = 4.354680142e-21, No Iterations 22
DILUPBiCG:  Solving for k, Initial residual = 0.02613987049, Final residual = 7.323884866e-21, No Iterations 25
HFDIBRANS: Max error in k -> ki is 0.003486377336
DILUPBiCG:  Solving for k, Initial residual = 2.043446687e-06, Final residual = 5.198964194e-21, No Iterations 16
HFDIBRANS: Max error in k -> ki is 2.702460779e-05
DILUPBiCG:  Solving for k, Initial residual = 2.787155336e-09, Final residual = 3.900091642e-21, No Iterations 13
HFDIBRANS: Max error in k -> ki is 1.894299938e-11
HFDIBRANS: k converged to ki within max tolerance 1e-08
bounding k, min: -1.894199938e-11 max: 0.5720337109 average: 0.01068631704
ExecutionTime = 4.85 s  ClockTime = 4 s

Time = 8

DILUPBiCG:  Solving for Ux, Initial residual = 0.01807153907, Final residual = 1.529439177e-11, No Iterations 14
DILUPBiCG:  Solving for Uy, Initial residual = 0.02741319588, Final residual = 3.673888912e-11, No Iterations 14
HFDIBRANS: Max error in U -> Ui is 0.2890203292
DILUPBiCG:  Solving for Ux, Initial residual = 3.354452229e-05, Final residual = 1.622995188e-11, No Iterations 10
DILUPBiCG:  Solving for Uy, Initial residual = 0.0001252466902, Final residual = 2.645870622e-11, No Iterations 12
HFDIBRANS: Max error in U -> Ui is 0.006138998948
DILUPBiCG:  Solving for Ux, Initial residual = 1.632058211e-07, Final residual = 7.974560812e-12, No Iterations 8
DILUPBiCG:  Solving for Uy, Initial residual = 1.022179223e-06, Final residual = 1.613057655e-11, No Iterations 9
HFDIBRANS: Max error in U -> Ui is 7.683175259e-05
DILUPBiCG:  Solving for Ux, Initial residual = 1.355541947e-09, Final residual = 4.741527447e-11, No Iterations 3
DILUPBiCG:  Solving for Uy, Initial residual = 9.283473998e-09, Final residual = 4.015635146e-11, No Iterations 5
HFDIBRANS: Max error in U -> Ui is 8.337960651e-07
DILUPBiCG:  Solving for Ux, Initial residual = 4.220430522e-11, Final residual = 4.220430522e-11, No Iterations 0
DILUPBiCG:  Solving for Uy, Initial residual = 1.193504644e-10, Final residual = 2.553463064e-11, No Iterations 1
HFDIBRANS: Max error in U -> Ui is 4.197761251e-09
HFDIBRANS: U converged to Ui within max tolerance 1e-08
GAMG:  Solving for p, Initial residual = 0.03251721264, Final residual = 4.608813636e-09, No Iterations 36
time step continuity errors : sum local = 6.064547247e-08, global = -7.99077315e-10, cumulative = 2.054002326e-07
DILUPBiCG:  Solving for omega, Initial residual = 0.0006348398525, Final residual = 6.660239744e-21, No Iterations 23
DILUPBiCG:  Solving for k, Initial residual = 0.02628948166, Final residual = 6.400873979e-22, No Iterations 26
HFDIBRANS: Max error in k -> ki is 0.004832514558
DILUPBiCG:  Solving for k, Initial residual = 1.249422101e-05, Final residual = 3.278564043e-21, No Iterations 17
HFDIBRANS: Max error in k -> ki is 2.113260437e-05
DILUPBiCG:  Solving for k, Initial residual = 7.034079816e-09, Final residual = 3.560781224e-21, No Iterations 14
HFDIBRANS: Max error in k -> ki is 3.45846541e-09
HFDIBRANS: k converged to ki within max tolerance 1e-08
bounding k, min: -3.45846441e-09 max: 0.6370944283 average: 0.0108603839
ExecutionTime = 5.43 s  ClockTime = 5 s

Time = 9

DILUPBiCG:  Solving for Ux, Initial residual = 0.03552765888, Final residual = 7.308568094e-11, No Iterations 13
DILUPBiCG:  Solving for Uy, Initial residual = 0.03727294647, Final residual = 5.26411751e-11, No Iterations 14
HFDIBRANS: Max error in U -> Ui is 0.3382880607
DILUPBiCG:  Solving for Ux, Initial residual = 3.418317822e-05, Final residual = 3.597163448e-11, No Iterations 10
DILUPBiCG:  Solving for Uy, Initial residual = 0.0001637076636, Final residual = 4.483408746e-12, No Iterations 13
HFDIBRANS: Max error in U -> Ui is 0.006105245428
DILUPBiCG:  Solving for Ux, Initial residual = 1.39113487e-07, Final residual = 1.751910466e-11, No Iterations 8
DILUPBiCG:  Solving for Uy, Initial residual = 1.222570137e-06, Final residual = 1.870919129e-11, No Iterations 9
HFDIBRANS: Max error in U -> Ui is 8.321307887e-05
DILUPBiCG:  Solving for Ux, Initial residual = 9.985790931e-10, Final residual = 1.856492943e-11, No Iterations 3
DILUPBiCG:  Solving for Uy, Initial residual = 1.031441023e-08, Final residual = 3.661852734e-11, No Iterations 5
HFDIBRANS: Max error in U -> Ui is 9.540162633e-07
DILUPBiCG:  Solving for Ux, Initial residual = 1.60758774e-11, Final residual = 1.60758774e-11, No Iterations 0
DILUPBiCG:  Solving for Uy, Initial residual = 1.23549969e-10, Final residual = 2.271581055e-11, No Iterations 1
HFDIBRANS: Max error in U -> Ui is 6.14719873e-09
HFDIBRANS: U converged to Ui within max tolerance 1e-08
GAMG:  Solving for p, Initial residual = 0.007833583958, Final residual = 6.556007036e-09, No Iterations 31
time step continuity errors : sum local = 3.224597193e-07, global = 1.787043283e-09, cumulative = 2.071872759e-07
DILUPBiCG:  Solving for omega, Initial residual = 0.0005153185252, Final residual = 5.194465756e-21, No Iterations 23
DILUPBiCG:  Solving for k, Initial residual = 0.0247497084, Final residual = 1.459880456e-22, No Iterations 26
HFDIBRANS: Max error in k -> ki is 0.00454022682
DILUPBiCG:  Solving for k, Initial residual = 1.330923876e-05, Final residual = 2.390227894e-21, No Iterations 17
HFDIBRANS: Max error in k -> ki is 7.62803439e-06
DILUPBiCG:  Solving for k, Initial residual = 6.416490507e-09, Final residual = 2.96892175e-21, No Iterations 14
HFDIBRANS: Max error in k -> ki is 4.263068937e-09
HFDIBRANS: k converged to ki within max tolerance 1e-08
bounding k, min: -4.263067937e-09 max: 0.6617620782 average: 0.01099813368
ExecutionTime = 5.97 s  ClockTime = 6 s

Time = 10

DILUPBiCG:  Solving for Ux, Initial residual = 0.04296805807, Final residual = 8.663519592e-11, No Iterations 14
DILUPBiCG:  Solving for Uy, Initial residual = 0.04900947926, Final residual = 7.062153614e-11, No Iterations 14
HFDIBRANS: Max error in U -> Ui is 0.3236799435
DILUPBiCG:  Solving for Ux, Initial residual = 4.679079432e-05, Final residual = 4.019852212e-12, No Iterations 11
DILUPBiCG:  Solving for Uy, Initial residual = 0.0001904915219, Final residual = 5.849286664e-11, No Iterations 12
HFDIBRANS: Max error in U -> Ui is 0.006012418848
DILUPBiCG:  Solving for Ux, Initial residual = 1.625884593e-07, Final residual = 4.519044033e-11, No Iterations 7
DILUPBiCG:  Solving for Uy, Initial residual = 1.391453916e-06, Final residual = 3.870487445e-11, No Iterations 9
HFDIBRANS: Max error in U -> Ui is 7.827671233e-05
DILUPBiCG:  Solving for Ux, Initial residual = 1.016885984e-09, Final residual = 5.84024642e-11, No Iterations 2
DILUPBiCG:  Solving for Uy, Initial residual = 1.059027359e-08, Final residual = 7.584847302e-11, No Iterations 5
HFDIBRANS: Max error in U -> Ui is 8.799258345e-07
DILUPBiCG:  Solving for Ux, Initial residual = 4.914666945e-11, Final residual = 4.914666945e-11, No Iterations 0
DILUPBiCG:  Solving for Uy, Initial residual = 1.452967832e-10, Final residual = 3.051774492e-11, No Iterations 1
HFDIBRANS: Max error in U -> Ui is 4.553714913e-09
HFDIBRANS: U converged to Ui within max tolerance 1e-08
GAMG:  Solving for p, Initial residual = 0.005271917567, Final residual = 8.213889362e-09, No Iterations 26
time step continuity errors : sum local = 5.634177627e-07, global = -5.968491516e-08, cumulative = 1.475023607e-07
DILUPBiCG:  Solving for omega, Initial residual = 0.0004484282774, Final residual = 9.238219946e-21, No Iterations 22
DILUPBiCG:  Solving for k, Initial residual = 0.02301485112, Final residual = 5.835928671e-21, No Iterations 24
HFDIBRANS: Max error in k -> ki is 0.005378991503
DILUPBiCG:  Solving for k, Initial residual = 1.197605549e-05, Final residual = 1.576097844e-21, No Iterations 17
HFDIBRANS: Max error in k -> ki is 3.944304526e-31
HFDIBRANS: k converged to ki within max tolerance 1e-08
bounding k, min: 1e-15 max: 0.6759768507 average: 0.01111631035
ExecutionTime = 6.45 s  ClockTime = 6 s

Time = 11

DILUPBiCG:  Solving for Ux, Initial residual = 0.04101390704, Final residual = 1.470078341e-11, No Iterations 14
DILUPBiCG:  Solving for Uy, Initial residual = 0.05354741914, Final residual = 6.8582853e-11, No Iterations 14
HFDIBRANS: Max error in U -> Ui is 0.3681153482
DILUPBiCG:  Solving for Ux, Initial residual = 3.978590388e-05, Final residual = 3.200185465e-12, No Iterations 11
DILUPBiCG:  Solving for Uy, Initial residual = 0.0002086148256, Final residual = 9.812564768e-11, No Iterations 11
HFDIBRANS: Max error in U -> Ui is 0.00586739797
DILUPBiCG:  Solving for Ux, Initial residual = 1.35076431e-07, Final residual = 6.893477172e-11, No Iterations 5
DILUPBiCG:  Solving for Uy, Initial residual = 1.073247216e-06, Final residual = 2.795182411e-11, No Iterations 9
HFDIBRANS: Max error in U -> Ui is 7.696769973e-05
DILUPBiCG:  Solving for Ux, Initial residual = 8.41882169e-10, Final residual = 4.924881347e-11, No Iterations 2
DILUPBiCG:  Solving for Uy, Initial residual = 7.356371883e-09, Final residual = 4.704927786e-11, No Iterations 4
HFDIBRANS: Max error in U -> Ui is 8.840421287e-07
DILUPBiCG:  Solving for Ux, Initial residual = 5.256594947e-11, Final residual = 5.256594947e-11, No Iterations 0
DILUPBiCG:  Solving for Uy, Initial residual = 9.212028617e-11, Final residual = 9.212028617e-11, No Iterations 0
HFDIBRANS: Max error in U -> Ui is 0
HFDIBRANS: U converged to Ui within max tolerance 1e-08
GAMG:  Solving for p, Initial residual = 0.005440807284, Final residual = 8.842044015e-09, No Iterations 28
time step continuity errors : sum local = 6.305004272e-07, global = -6.471031279e-10, cumulative = 1.468552576e-07
DILUPBiCG:  Solving for omega, Initial residual = 0.0004243890974, Final residual = 4.076365486e-21, No Iterations 22
DILUPBiCG:  Solving for k, Initial residual = 0.01737014637, Final residual = 3.178019935e-21, No Iterations 24
HFDIBRANS: Max error in k -> ki is 0.004070652686
DILUPBiCG:  Solving for k, Initial residual = 2.023700632e-07, Final residual = 5.448220808e-21, No Iterations 15
HFDIBRANS: Max error in k -> ki is 3.664239154e-09
HFDIBRANS: k converged to ki within max tolerance 1e-08
bounding k, min: -3.664238154e-09 max: 0.6756234649 average: 0.01122263017
ExecutionTime = 6.93 s  ClockTime = 7 s

Time = 12

DILUPBiCG:  Solving for Ux, Initial residual = 0.03293417277, Final residual = 3.252196203e-11, No Iterations 14
DILUPBiCG:  Solving for Uy, Initial residual = 0.04793765374, Final residual = 6.013934321e-11, No Iterations 14
HFDIBRANS: Max error in U -> Ui is 0.3509396362
DILUPBiCG:  Solving for Ux, Initial residual = 4.745090379e-05, Final residual = 1.742236889e-12, No Iterations 11
DILUPBiCG:  Solving for Uy, Initial residual = 0.0002027619767, Final residual = 7.626760983e-11, No Iterations 11
HFDIBRANS: Max error in U -> Ui is 0.005881668446
DILUPBiCG:  Solving for Ux, Initial residual = 1.420072929e-07, Final residual = 8.58148091e-11, No Iterations 6
DILUPBiCG:  Solving for Uy, Initial residual = 1.053140861e-06, Final residual = 9.1713784e-11, No Iterations 8
HFDIBRANS: Max error in U -> Ui is 7.604688158e-05
DILUPBiCG:  Solving for Ux, Initial residual = 8.814489876e-10, Final residual = 4.180984435e-11, No Iterations 2
DILUPBiCG:  Solving for Uy, Initial residual = 7.17834299e-09, Final residual = 3.813794711e-11, No Iterations 4
HFDIBRANS: Max error in U -> Ui is 9.014770628e-07
DILUPBiCG:  Solving for Ux, Initial residual = 4.614367556e-11, Final residual = 4.614367556e-11, No Iterations 0
DILUPBiCG:  Solving for Uy, Initial residual = 8.521463247e-11, Final residual = 8.521463247e-11, No Iterations 0
HFDIBRANS: Max error in U -> Ui is 0
HFDIBRANS: U converged to Ui within max tolerance 1e-08
GAMG:  Solving for p, Initial residual = 0.006862693884, Final residual = 9.925459017e-09, No Iterations 30
time step continuity errors : sum local = 5.982756344e-07, global = -1.461157246e-08, cumulative = 1.322436851e-07
DILUPBiCG:  Solving for omega, Initial residual = 0.0004182848726, Final residual = 3.14207213e-21, No Iterations 22
DILUPBiCG:  Solving for k, Initial residual = 0.01648016507, Final residual = 5.885431701e-22, No Iterations 25
HFDIBRANS: Max error in k -> ki is 0.005449434251
DILUPBiCG:  Solving for k, Initial residual = 9.632429664e-07, Final residual = 8.447403192e-21, No Iterations 15
HFDIBRANS: Max error in k -> ki is 1.421801993e-12
HFDIBRANS: k converged to ki within max tolerance 1e-08
bounding k, min: -1.420801993e-12 max: 0.6603542497 average: 0.01132288785
ExecutionTime = 7.42 s  ClockTime = 7 s

Time = 13

DILUPBiCG:  Solving for Ux, Initial residual = 0.02322113681, Final residual = 8.957751534e-12, No Iterations 14
DILUPBiCG:  Solving for Uy, Initial residual = 0.03355651149, Final residual = 3.881048907e-11, No Iterations 14
HFDIBRANS: Max error in U -> Ui is 0.3601622338
DILUPBiCG:  Solving for Ux, Initial residual = 3.728222691e-05, Final residual = 5.862013165e-11, No Iterations 10
DILUPBiCG:  Solving for Uy, Initial residual = 0.0001858992143, Final residual = 2.294262003e-11, No Iterations 12
HFDIBRANS: Max error in U -> Ui is 0.005875625271
DILUPBiCG:  Solving for Ux, Initial residual = 1.274453013e-07, Final residual = 6.863656623e-11, No Iterations 5
DILUPBiCG:  Solving for Uy, Initial residual = 9.732769139e-07, Final residual = 2.256280534e-11, No Iterations 9
HFDIBRANS: Max error in U -> Ui is 7.541103765e-05
DILUPBiCG:  Solving for Ux, Initial residual = 7.541740835e-10, Final residual = 1.814992794e-11, No Iterations 2
DILUPBiCG:  Solving for Uy, Initial residual = 6.811967502e-09, Final residual = 2.920943614e-11, No Iterations 4
HFDIBRANS: Max error in U -> Ui is 8.330730383e-07
DILUPBiCG:  Solving for Ux, Initial residual = 2.235362132e-11, Final residual = 2.235362132e-11, No Iterations 0
DILUPBiCG:  Solving for Uy, Initial residual = 7.767368116e-11, Final residual = 7.767368116e-11, No Iterations 0
HFDIBRANS: Max error in U -> Ui is 0
HFDIBRANS: U converged to Ui within max tolerance 1e-08
GAMG:  Solving for p, Initial residual = 0.01037407896, Final residual = 8.554519295e-09, No Iterations 31
time step continuity errors : sum local = 3.483035406e-07, global = -7.814155325e-09, cumulative = 1.244295298e-07
DILUPBiCG:  Solving for omega, Initial residual = 0.0004374755082, Final residual = 2.868531701e-21, No Iterations 22
DILUPBiCG:  Solving for k, Initial residual = 0.01464345772, Final residual = 6.924983556e-21, No Iterations 23
HFDIBRANS: Max error in k -> ki is 0.004487274173
DILUPBiCG:  Solving for k, Initial residual = 3.677913363e-07, Final residual = 6.980868202e-21, No Iterations 15
HFDIBRANS: Max error in k -> ki is 6.280960202e-08
DILUPBiCG:  Solving for k, Initial residual = 6.262084443e-11, Final residual = 4.334415995e-21, No Iterations 12
HFDIBRANS: Max error in k -> ki is 3.525133114e-09
HFDIBRANS: k converged to ki within max tolerance 1e-08
bounding k, min: -3.525132114e-09 max: 0.6387923928 average: 0.011419407
ExecutionTime = 7.94 s  ClockTime = 8 s

Time = 14

DILUPBiCG:  Solving for Ux, Initial residual = 0.01248607769, Final residual = 4.851138557e-11, No Iterations 13
DILUPBiCG:  Solving for Uy, Initial residual = 0.01699244854, Final residual = 4.862114259e-11, No Iterations 14
HFDIBRANS: Max error in U -> Ui is 0.3146712074
DILUPBiCG:  Solving for Ux, Initial residual = 3.946330521e-05, Final residual = 3.323574691e-11, No Iterations 10
DILUPBiCG:  Solving for Uy, Initial residual = 0.0001603119783, Final residual = 2.779511653e-11, No Iterations 12
HFDIBRANS: Max error in U -> Ui is 0.005947408803
DILUPBiCG:  Solving for Ux, Initial residual = 1.305952369e-07, Final residual = 7.167500027e-11, No Iterations 5
DILUPBiCG:  Solving for Uy, Initial residual = 9.325295339e-07, Final residual = 2.22198234e-11, No Iterations 9
HFDIBRANS: Max error in U -> Ui is 7.403162893e-05
DILUPBiCG:  Solving for Ux, Initial residual = 8.112365175e-10, Final residual = 3.518539883e-11, No Iterations 2
DILUPBiCG:  Solving for Uy, Initial residual = 6.76370914e-09, Final residual = 3.37681696e-11, No Iterations 4
HFDIBRANS: Max error in U -> Ui is 8.275092116e-07
DILUPBiCG:  Solving for Ux, Initial residual = 3.862620599e-11, Final residual = 3.862620599e-11, No Iterations 0
DILUPBiCG:  Solving for Uy, Initial residual = 8.064180481e-11, Final residual = 8.064180481e-11, No Iterations 0
HFDIBRANS: Max error in U -> Ui is 0
HFDIBRANS: U converged to Ui within max tolerance 1e-08
GAMG:  Solving for p, Initial residual = 0.02218301828, Final residual = 7.48422848e-09, No Iterations 32
time step continuity errors : sum local = 1.402549679e-07, global = 5.034323386e-09, cumulative = 1.294638532e-07
DILUPBiCG:  Solving for omega, Initial residual = 0.000467774759, Final residual = 4.782675008e-21, No Iterations 22
DILUPBiCG:  Solving for k, Initial residual = 0.01486332963, Final residual = 9.63202828e-21, No Iterations 23
HFDIBRANS: Max error in k -> ki is 0.006405538983
DILUPBiCG:  Solving for k, Initial residual = 4.295450573e-06, Final residual = 2.511381138e-21, No Iterations 17
HFDIBRANS: Max error in k -> ki is 4.924646388e-09
HFDIBRANS: k converged to ki within max tolerance 1e-08
bounding k, min: -4.924645388e-09 max: 0.6116873138 average: 0.01151348116
ExecutionTime = 8.44 s  ClockTime = 8 s

Time = 15

DILUPBiCG:  Solving for Ux, Initial residual = 0.01321909848, Final residual = 3.705127298e-11, No Iterations 13
DILUPBiCG:  Solving for Uy, Initial residual = 0.02065178451, Final residual = 4.764860022e-11, No Iterations 14
HFDIBRANS: Max error in U -> Ui is 0.2925775495
DILUPBiCG:  Solving for Ux, Initial residual = 2.906060993e-05, Final residual = 9.969651461e-11, No Iterations 9
DILUPBiCG:  Solving for Uy, Initial residual = 0.0001343228997, Final residual = 2.975216932e-11, No Iterations 12
HFDIBRANS: Max error in U -> Ui is 0.006005890912
DILUPBiCG:  Solving for Ux, Initial residual = 1.202284764e-07, Final residual = 9.073998359e-11, No Iterations 5
DILUPBiCG:  Solving for Uy, Initial residual = 8.177175864e-07, Final residual = 4.286622518e-11, No Iterations 8
HFDIBRANS: Max error in U -> Ui is 7.699404292e-05
DILUPBiCG:  Solving for Ux, Initial residual = 8.100167494e-10, Final residual = 7.858282083e-11, No Iterations 1
DILUPBiCG:  Solving for Uy, Initial residual = 6.362350418e-09, Final residual = 2.714070519e-11, No Iterations 4
HFDIBRANS: Max error in U -> Ui is 8.096254397e-07
DILUPBiCG:  Solving for Ux, Initial residual = 6.913244319e-11, Final residual = 6.913244319e-11, No Iterations 0
DILUPBiCG:  Solving for Uy, Initial residual = 7.504457142e-11, Final residual = 7.504457142e-11, No Iterations 0
HFDIBRANS: Max error in U -> Ui is 0
HFDIBRANS: U converged to Ui within max tolerance 1e-08
GAMG:  Solving for p, Initial residual = 0.0373037958, Final residual = 8.887858472e-09, No Iterations 33
time step continuity errors : sum local = 9.322505876e-08, global = 1.061776588e-09, cumulative = 1.305256298e-07
DILUPBiCG:  Solving for omega, Initial residual = 0.0004849163533, Final residual = 2.455203455e-21, No Iterations 22
DILUPBiCG:  Solving for k, Initial residual = 0.01790897137, Final residual = 5.765363038e-21, No Iterations 23
HFDIBRANS: Max error in k -> ki is 0.003000957281
DILUPBiCG:  Solving for k, Initial residual = 6.003438087e-06, Final residual = 4.049322313e-22, No Iterations 16
HFDIBRANS: Max error in k -> ki is 1.424481515e-07
DILUPBiCG:  Solving for k, Initial residual = 3.059688996e-10, Final residual = 1.003364271e-21, No Iterations 13
HFDIBRANS: Max error in k -> ki is 8.366792591e-10
HFDIBRANS: k converged to ki within max tolerance 1e-08
bounding k, min: -8.366782591e-10 max: 0.5815716375 average: 0.01160546202
ExecutionTime = 8.96 s  ClockTime = 9 s

Time = 16

DILUPBiCG:  Solving for Ux, Initial residual = 0.02080521473, Final residual = 5.370605497e-11, No Iterations 13
DILUPBiCG:  Solving for Uy, Initial residual = 0.03178372378, Final residual = 3.420022246e-11, No Iterations 14
HFDIBRANS: Max error in U -> Ui is 0.2329311802
DILUPBiCG:  Solving for Ux, Initial residual = 2.673996671e-05, Final residual = 8.93677825e-11, No Iterations 9
DILUPBiCG:  Solving for Uy, Initial residual = 0.0001121041221, Final residual = 4.132961906e-11, No Iterations 12
HFDIBRANS: Max error in U -> Ui is 0.006149957493
DILUPBiCG:  Solving for Ux, Initial residual = 1.202476469e-07, Final residual = 6.074524397e-11, No Iterations 6
DILUPBiCG:  Solving for Uy, Initial residual = 7.562368818e-07, Final residual = 1.620379013e-11, No Iterations 9
HFDIBRANS: Max error in U -> Ui is 7.937710826e-05
DILUPBiCG:  Solving for Ux, Initial residual = 8.28617236e-10, Final residual = 7.082076969e-11, No Iterations 1
DILUPBiCG:  Solving for Uy, Initial residual = 6.158985009e-09, Final residual = 9.941170089e-11, No Iterations 3
HFDIBRANS: Max error in U -> Ui is 8.619688179e-07
DILUPBiCG:  Solving for Ux, Initial residual = 6.01221447e-11, Final residual = 6.01221447e-11, No Iterations 0
DILUPBiCG:  Solving for Uy, Initial residual = 1.170981414e-10, Final residual = 2.397347087e-11, No Iterations 1
HFDIBRANS: Max error in U -> Ui is 2.948556091e-09
HFDIBRANS: U converged to Ui within max tolerance 1e-08
GAMG:  Solving for p, Initial residual = 0.01498504498, Final residual = 7.823717899e-09, No Iterations 28
time step continuity errors : sum local = 1.889612241e-07, global = -2.346836604e-09, cumulative = 1.281787932e-07
DILUPBiCG:  Solving for omega, Initial residual = 0.0004914627322, Final residual = 2.679054767e-21, No Iterations 22
DILUPBiCG:  Solving for k, Initial residual = 0.01793995324, Final residual = 6.564990963e-21, No Iterations 23
HFDIBRANS: Max error in k -> ki is 0.00444259323
DILUPBiCG:  Solving for k, Initial residual = 5.498454502e-06, Final residual = 7.169777649e-22, No Iterations 17
HFDIBRANS: Max error in k -> ki is 1.082248313e-10
HFDIBRANS: k converged to ki within max tolerance 1e-08
bounding k, min: -1.082238313e-10 max: 0.5456381558 average: 0.01169688094
ExecutionTime = 9.44 s  ClockTime = 9 s

Time = 17

DILUPBiCG:  Solving for Ux, Initial residual = 0.02399117709, Final residual = 5.212018022e-11, No Iterations 13
DILUPBiCG:  Solving for Uy, Initial residual = 0.03633080821, Final residual = 3.47310013e-11, No Iterations 14
HFDIBRANS: Max error in U -> Ui is 0.1956155487
DILUPBiCG:  Solving for Ux, Initial residual = 1.659701459e-05, Final residual = 7.124057509e-11, No Iterations 9
DILUPBiCG:  Solving for Uy, Initial residual = 9.764268373e-05, Final residual = 1.131585205e-11, No Iterations 12
HFDIBRANS: Max error in U -> Ui is 0.006203781007
DILUPBiCG:  Solving for Ux, Initial residual = 9.69467263e-08, Final residual = 5.817287808e-11, No Iterations 6
DILUPBiCG:  Solving for Uy, Initial residual = 6.733193761e-07, Final residual = 4.732358927e-11, No Iterations 8
HFDIBRANS: Max error in U -> Ui is 8.116288729e-05
DILUPBiCG:  Solving for Ux, Initial residual = 7.614747503e-10, Final residual = 6.426782056e-11, No Iterations 1
DILUPBiCG:  Solving for Uy, Initial residual = 5.654166337e-09, Final residual = 7.679724393e-11, No Iterations 3
HFDIBRANS: Max error in U -> Ui is 8.948895509e-07
DILUPBiCG:  Solving for Ux, Initial residual = 5.486246589e-11, Final residual = 5.486246589e-11, No Iterations 0
DILUPBiCG:  Solving for Uy, Initial residual = 9.743281583e-11, Final residual = 9.743281583e-11, No Iterations 0
HFDIBRANS: Max error in U -> Ui is 0
HFDIBRANS: U converged to Ui within max tolerance 1e-08
GAMG:  Solving for p, Initial residual = 0.01150816335, Final residual = 7.139247612e-09, No Iterations 28
time step continuity errors : sum local = 2.153759176e-07, global = 4.002097814e-10, cumulative = 1.285790029e-07
DILUPBiCG:  Solving for omega, Initial residual = 0.0004998266951, Final residual = 2.965210022e-21, No Iterations 22
DILUPBiCG:  Solving for k, Initial residual = 0.01081795708, Final residual = 6.190577983e-21, No Iterations 23
HFDIBRANS: Max error in k -> ki is 0.001394918551
DILUPBiCG:  Solving for k, Initial residual = 1.21390325e-07, Final residual = 7.177705736e-21, No Iterations 14
HFDIBRANS: Max error in k -> ki is 1.18191193e-07
DILUPBiCG:  Solving for k, Initial residual = 2.81204216e-11, Final residual = 3.311326914e-21, No Iterations 12
HFDIBRANS: Max error in k -> ki is 1.469386399e-09
HFDIBRANS: k converged to ki within max tolerance 1e-08
bounding k, min: -1.469385399e-09 max: 0.5064359941 average: 0.01179023504
ExecutionTime = 9.95 s  ClockTime = 10 s

Time = 18

DILUPBiCG:  Solving for Ux, Initial residual = 0.02302056465, Final residual = 4.478541732e-11, No Iterations 13
DILUPBiCG:  Solving for Uy, Initial residual = 0.03479836485, Final residual = 5.420060697e-11, No Iterations 14
HFDIBRANS: Max error in U -> Ui is 0.197878141
DILUPBiCG:  Solving for Ux, Initial residual = 1.258572321e-05, Final residual = 6.136854363e-11, No Iterations 9
DILUPBiCG:  Solving for Uy, Initial residual = 8.988394846e-05, Final residual = 5.627692665e-11, No Iterations 11
HFDIBRANS: Max error in U -> Ui is 0.006284199239
DILUPBiCG:  Solving for Ux, Initial residual = 9.073387205e-08, Final residual = 9.283764443e-11, No Iterations 6
DILUPBiCG:  Solving for Uy, Initial residual = 6.368200882e-07, Final residual = 2.647622609e-11, No Iterations 8
HFDIBRANS: Max error in U -> Ui is 8.346884083e-05
DILUPBiCG:  Solving for Ux, Initial residual = 8.237950825e-10, Final residual = 7.125796757e-11, No Iterations 1
DILUPBiCG:  Solving for Uy, Initial residual = 5.40998402e-09, Final residual = 6.016817373e-11, No Iterations 3
HFDIBRANS: Max error in U -> Ui is 9.346686918e-07
DILUPBiCG:  Solving for Ux, Initial residual = 6.131968124e-11, Final residual = 6.131968124e-11, No Iterations 0
DILUPBiCG:  Solving for Uy, Initial residual = 8.107018782e-11, Final residual = 8.107018782e-11, No Iterations 0
HFDIBRANS: Max error in U -> Ui is 0
HFDIBRANS: U converged to Ui within max tolerance 1e-08
GAMG:  Solving for p, Initial residual = 0.0121602464, Final residual = 9.83772957e-09, No Iterations 29
time step continuity errors : sum local = 2.838991229e-07, global = -9.471180452e-09, cumulative = 1.191078225e-07
DILUPBiCG:  Solving for omega, Initial residual = 0.0005006813409, Final residual = 2.896189493e-21, No Iterations 22
DILUPBiCG:  Solving for k, Initial residual = 0.01122169679, Final residual = 9.321398985e-21, No Iterations 24
HFDIBRANS: Max error in k -> ki is 0.004538854122
DILUPBiCG:  Solving for k, Initial residual = 1.577427809e-06, Final residual = 3.393638015e-21, No Iterations 17
HFDIBRANS: Max error in k -> ki is 6.307756396e-09
HFDIBRANS: k converged to ki within max tolerance 1e-08
bounding k, min: -6.307755396e-09 max: 0.4656405451 average: 0.0118837741
ExecutionTime = 10.45 s  ClockTime = 10 s

Time = 19

DILUPBiCG:  Solving for Ux, Initial residual = 0.01912051543, Final residual = 3.740471212e-11, No Iterations 13
DILUPBiCG:  Solving for Uy, Initial residual = 0.02950448365, Final residual = 7.407713386e-12, No Iterations 15
HFDIBRANS: Max error in U -> Ui is 0.2202656855
DILUPBiCG:  Solving for Ux, Initial residual = 1.242909437e-05, Final residual = 5.345318656e-11, No Iterations 9
DILUPBiCG:  Solving for Uy, Initial residual = 8.452483758e-05, Final residual = 9.968284609e-11, No Iterations 10
HFDIBRANS: Max error in U -> Ui is 0.006300739943
DILUPBiCG:  Solving for Ux, Initial residual = 9.742900629e-08, Final residual = 9.243956158e-11, No Iterations 6
DILUPBiCG:  Solving for Uy, Initial residual = 6.243502665e-07, Final residual = 1.498457306e-11, No Iterations 8
HFDIBRANS: Max error in U -> Ui is 8.721811456e-05
DILUPBiCG:  Solving for Ux, Initial residual = 9.297524824e-10, Final residual = 7.650954652e-11, No Iterations 1
DILUPBiCG:  Solving for Uy, Initial residual = 5.620190527e-09, Final residual = 5.032938649e-11, No Iterations 3
HFDIBRANS: Max error in U -> Ui is 1.009855438e-06
DILUPBiCG:  Solving for Ux, Initial residual = 6.575123332e-11, Final residual = 6.575123332e-11, No Iterations 0
DILUPBiCG:  Solving for Uy, Initial residual = 7.891511071e-11, Final residual = 7.891511071e-11, No Iterations 0
HFDIBRANS: Max error in U -> Ui is 0
HFDIBRANS: U converged to Ui within max tolerance 1e-08
GAMG:  Solving for p, Initial residual = 0.01502235698, Final residual = 8.195853337e-09, No Iterations 32
time step continuity errors : sum local = 1.93433044e-07, global = 4.51036438e-09, cumulative = 1.236181869e-07
DILUPBiCG:  Solving for omega, Initial residual = 0.0004839214269, Final residual = 7.224007653e-22, No Iterations 23
DILUPBiCG:  Solving for k, Initial residual = 0.01468824735, Final residual = 3.722685771e-21, No Iterations 24
HFDIBRANS: Max error in k -> ki is 0.002255461938
DILUPBiCG:  Solving for k, Initial residual = 4.131841525e-06, Final residual = 2.765111827e-21, No Iterations 16
HFDIBRANS: Max error in k -> ki is 1.242157552e-06
DILUPBiCG:  Solving for k, Initial residual = 4.090414448e-10, Final residual = 5.812929322e-21, No Iterations 12
HFDIBRANS: Max error in k -> ki is 2.561265228e-09
HFDIBRANS: k converged to ki within max tolerance 1e-08
bounding k, min: -2.561264228e-09 max: 0.4281040301 average: 0.01197824861
ExecutionTime = 10.98 s  ClockTime = 11 s

Time = 20

DILUPBiCG:  Solving for Ux, Initial residual = 0.01396984765, Final residual = 3.133824998e-11, No Iterations 13
DILUPBiCG:  Solving for Uy, Initial residual = 0.02277078603, Final residual = 8.575301538e-11, No Iterations 14
HFDIBRANS: Max error in U -> Ui is 0.2516786492
DILUPBiCG:  Solving for Ux, Initial residual = 1.946867452e-05, Final residual = 4.437910182e-11, No Iterations 9
DILUPBiCG:  Solving for Uy, Initial residual = 8.080047291e-05, Final residual = 5.654802532e-11, No Iterations 10
HFDIBRANS: Max error in U -> Ui is 0.006375926891
DILUPBiCG:  Solving for Ux, Initial residual = 1.270249815e-07, Final residual = 9.520608316e-11, No Iterations 5
DILUPBiCG:  Solving for Uy, Initial residual = 6.172994479e-07, Final residual = 1.177596179e-11, No Iterations 8
HFDIBRANS: Max error in U -> Ui is 8.943571792e-05
DILUPBiCG:  Solving for Ux, Initial residual = 1.072080844e-09, Final residual = 8.348907825e-11, No Iterations 1
DILUPBiCG:  Solving for Uy, Initial residual = 5.719744288e-09, Final residual = 4.769526689e-11, No Iterations 3
HFDIBRANS: Max error in U -> Ui is 1.041055181e-06
DILUPBiCG:  Solving for Ux, Initial residual = 7.252633525e-11, Final residual = 7.252633525e-11, No Iterations 0
DILUPBiCG:  Solving for Uy, Initial residual = 7.847593559e-11, Final residual = 7.847593559e-11, No Iterations 0
HFDIBRANS: Max error in U -> Ui is 0
HFDIBRANS: U converged to Ui within max tolerance 1e-08
GAMG:  Solving for p, Initial residual = 0.03022050662, Final residual = 8.656519535e-09, No Iterations 31
time step continuity errors : sum local = 9.756678412e-08, global = -4.134393174e-09, cumulative = 1.194837937e-07
DILUPBiCG:  Solving for omega, Initial residual = 0.0004636381615, Final residual = 2.805756551e-21, No Iterations 22
DILUPBiCG:  Solving for k, Initial residual = 0.01615300839, Final residual = 2.205155182e-21, No Iterations 24
HFDIBRANS: Max error in k -> ki is 0.004836695955
DILUPBiCG:  Solving for k, Initial residual = 1.023813975e-05, Final residual = 6.537403945e-21, No Iterations 16
HFDIBRANS: Max error in k -> ki is 5.620582765e-07
DILUPBiCG:  Solving for k, Initial residual = 1.30807027e-09, Final residual = 1.706779016e-21, No Iterations 14
HFDIBRANS: Max error in k -> ki is 4.080517144e-09
HFDIBRANS: k converged to ki within max tolerance 1e-08
bounding k, min: -4.080516144e-09 max: 0.3963606427 average: 0.01207316145
ExecutionTime = 11.5 s  ClockTime = 11 s

Time = 21

DILUPBiCG:  Solving for Ux, Initial residual = 0.008946671295, Final residual = 3.160669507e-11, No Iterations 13
DILUPBiCG:  Solving for Uy, Initial residual = 0.01628456149, Final residual = 3.84519574e-11, No Iterations 14
HFDIBRANS: Max error in U -> Ui is 0.2833651631
DILUPBiCG:  Solving for Ux, Initial residual = 2.710076007e-05, Final residual = 3.725271228e-11, No Iterations 9
DILUPBiCG:  Solving for Uy, Initial residual = 7.939405259e-05, Final residual = 4.138293621e-11, No Iterations 10
HFDIBRANS: Max error in U -> Ui is 0.006458177141
DILUPBiCG:  Solving for Ux, Initial residual = 1.415142999e-07, Final residual = 8.666177663e-11, No Iterations 5
DILUPBiCG:  Solving for Uy, Initial residual = 6.109148921e-07, Final residual = 8.709966592e-12, No Iterations 8
HFDIBRANS: Max error in U -> Ui is 9.070886507e-05
DILUPBiCG:  Solving for Ux, Initial residual = 1.058374341e-09, Final residual = 8.34636126e-11, No Iterations 1
DILUPBiCG:  Solving for Uy, Initial residual = 5.825806631e-09, Final residual = 4.197623292e-11, No Iterations 3
HFDIBRANS: Max error in U -> Ui is 1.067721359e-06
DILUPBiCG:  Solving for Ux, Initial residual = 7.294958505e-11, Final residual = 7.294958505e-11, No Iterations 0
DILUPBiCG:  Solving for Uy, Initial residual = 7.7012948e-11, Final residual = 7.7012948e-11, No Iterations 0
HFDIBRANS: Max error in U -> Ui is 0
HFDIBRANS: U converged to Ui within max tolerance 1e-08
GAMG:  Solving for p, Initial residual = 0.04254273527, Final residual = 4.707838352e-09, No Iterations 34
time step continuity errors : sum local = 3.598121329e-08, global = -1.458316321e-10, cumulative = 1.193379621e-07
DILUPBiCG:  Solving for omega, Initial residual = 0.0004390125264, Final residual = 7.409740986e-21, No Iterations 22
DILUPBiCG:  Solving for k, Initial residual = 0.01602987556, Final residual = 6.611929061e-21, No Iterations 23
HFDIBRANS: Max error in k -> ki is 0.004767329542
DILUPBiCG:  Solving for k, Initial residual = 1.206554904e-05, Final residual = 3.899011078e-21, No Iterations 16
HFDIBRANS: Max error in k -> ki is -0
HFDIBRANS: k converged to ki within max tolerance 1e-08
ExecutionTime = 12.01 s  ClockTime = 12 s

Time = 22

DILUPBiCG:  Solving for Ux, Initial residual = 0.01110526723, Final residual = 3.086639404e-11, No Iterations 14
DILUPBiCG:  Solving for Uy, Initial residual = 0.01299234795, Final residual = 2.323872438e-11, No Iterations 14
HFDIBRANS: Max error in U -> Ui is 0.3090033919
DILUPBiCG:  Solving for Ux, Initial residual = 3.007774769e-05, Final residual = 3.230319221e-11, No Iterations 9
DILUPBiCG:  Solving for Uy, Initial residual = 7.83329492e-05, Final residual = 3.206770934e-11, No Iterations 10
HFDIBRANS: Max error in U -> Ui is 0.00660946805
DILUPBiCG:  Solving for Ux, Initial residual = 1.36386342e-07, Final residual = 7.506218157e-11, No Iterations 5
DILUPBiCG:  Solving for Uy, Initial residual = 5.782378993e-07, Final residual = 6.755211245e-11, No Iterations 7
HFDIBRANS: Max error in U -> Ui is 9.050411915e-05
DILUPBiCG:  Solving for Ux, Initial residual = 9.428219577e-10, Final residual = 7.247390425e-11, No Iterations 1
DILUPBiCG:  Solving for Uy, Initial residual = 5.489337549e-09, Final residual = 3.388643286e-11, No Iterations 3
HFDIBRANS: Max error in U -> Ui is 1.057621503e-06
DILUPBiCG:  Solving for Ux, Initial residual = 6.312245676e-11, Final residual = 6.312245676e-11, No Iterations 0
DILUPBiCG:  Solving for Uy, Initial residual = 6.742064732e-11, Final residual = 6.742064732e-11, No Iterations 0
HFDIBRANS: Max error in U -> Ui is 0
HFDIBRANS: U converged to Ui within max tolerance 1e-08
GAMG:  Solving for p, Initial residual = 0.01961602377, Final residual = 7.268730732e-09, No Iterations 30
time step continuity errors : sum local = 1.130289723e-07, global = 1.021159031e-09, cumulative = 1.203591211e-07
DILUPBiCG:  Solving for omega, Initial residual = 0.0004243653853, Final residual = 9.973293544e-21, No Iterations 21
DILUPBiCG:  Solving for k, Initial residual = 0.008122579802, Final residual = 8.100734848e-21, No Iterations 23
HFDIBRANS: Max error in k -> ki is 0.00186977477
DILUPBiCG:  Solving for k, Initial residual = 9.538692148e-08, Final residual = 5.756562686e-23, No Iterations 16
HFDIBRANS: Max error in k -> ki is 1.095898692e-06
DILUPBiCG:  Solving for k, Initial residual = 3.483459781e-11, Final residual = 5.955123811e-21, No Iterations 11
HFDIBRANS: Max error in k -> ki is 2.06568433e-09
HFDIBRANS: k converged to ki within max tolerance 1e-08
bounding k, min: -2.06568333e-09 max: 0.3507083701 average: 0.01226688018
ExecutionTime = 12.51 s  ClockTime = 12 s

Time = 23

DILUPBiCG:  Solving for Ux, Initial residual = 0.01274413904, Final residual = 3.677889556e-11, No Iterations 13
DILUPBiCG:  Solving for Uy, Initial residual = 0.01450167152, Final residual = 2.123133408e-11, No Iterations 14
HFDIBRANS: Max error in U -> Ui is 0.3385713727
DILUPBiCG:  Solving for Ux, Initial residual = 3.652823125e-05, Final residual = 3.120625564e-11, No Iterations 9
DILUPBiCG:  Solving for Uy, Initial residual = 8.07327726e-05, Final residual = 2.632329983e-11, No Iterations 10
HFDIBRANS: Max error in U -> Ui is 0.006647031715
DILUPBiCG:  Solving for Ux, Initial residual = 1.479602187e-07, Final residual = 8.048560593e-11, No Iterations 5
DILUPBiCG:  Solving for Uy, Initial residual = 6.124363163e-07, Final residual = 5.742105287e-11, No Iterations 7
HFDIBRANS: Max error in U -> Ui is 9.156412364e-05
DILUPBiCG:  Solving for Ux, Initial residual = 9.911791573e-10, Final residual = 7.600710188e-11, No Iterations 1
DILUPBiCG:  Solving for Uy, Initial residual = 5.9766987e-09, Final residual = 3.38608257e-11, No Iterations 3
HFDIBRANS: Max error in U -> Ui is 1.072182383e-06
DILUPBiCG:  Solving for Ux, Initial residual = 6.607828234e-11, Final residual = 6.607828234e-11, No Iterations 0
DILUPBiCG:  Solving for Uy, Initial residual = 7.282907588e-11, Final residual = 7.282907588e-11, No Iterations 0
HFDIBRANS: Max error in U -> Ui is 0
HFDIBRANS: U converged to Ui within max tolerance 1e-08
GAMG:  Solving for p, Initial residual = 0.01425691096, Final residual = 4.922085298e-09, No Iterations 27
time step continuity errors : sum local = 9.805779955e-08, global = -2.836182884e-09, cumulative = 1.175229382e-07
DILUPBiCG:  Solving for omega, Initial residual = 0.0004157785144, Final residual = 6.314289653e-21, No Iterations 21
DILUPBiCG:  Solving for k, Initial residual = 0.009000595416, Final residual = 9.650880666e-21, No Iterations 23
HFDIBRANS: Max error in k -> ki is 0.004584354307
DILUPBiCG:  Solving for k, Initial residual = 4.753887519e-06, Final residual = 2.303351511e-21, No Iterations 16
HFDIBRANS: Max error in k -> ki is 7.221065811e-09
HFDIBRANS: k converged to ki within max tolerance 1e-08
bounding k, min: -7.221064811e-09 max: 0.3275412074 average: 0.0123644047
ExecutionTime = 12.97 s  ClockTime = 13 s

Time = 24

DILUPBiCG:  Solving for Ux, Initial residual = 0.01244700357, Final residual = 6.869473409e-11, No Iterations 13
DILUPBiCG:  Solving for Uy, Initial residual = 0.0166828423, Final residual = 2.243659929e-11, No Iterations 14
HFDIBRANS: Max error in U -> Ui is 0.3489302812
DILUPBiCG:  Solving for Ux, Initial residual = 3.641347129e-05, Final residual = 2.701861059e-11, No Iterations 9
DILUPBiCG:  Solving for Uy, Initial residual = 8.11337764e-05, Final residual = 2.014749507e-11, No Iterations 10
HFDIBRANS: Max error in U -> Ui is 0.006745499367
DILUPBiCG:  Solving for Ux, Initial residual = 1.498178239e-07, Final residual = 7.308890336e-11, No Iterations 5
DILUPBiCG:  Solving for Uy, Initial residual = 6.110837289e-07, Final residual = 4.642392794e-11, No Iterations 7
HFDIBRANS: Max error in U -> Ui is 9.467487896e-05
DILUPBiCG:  Solving for Ux, Initial residual = 9.825242232e-10, Final residual = 7.346449305e-11, No Iterations 1
DILUPBiCG:  Solving for Uy, Initial residual = 6.055354775e-09, Final residual = 2.989175222e-11, No Iterations 3
HFDIBRANS: Max error in U -> Ui is 1.128627615e-06
DILUPBiCG:  Solving for Ux, Initial residual = 6.309220226e-11, Final residual = 6.309220226e-11, No Iterations 0
DILUPBiCG:  Solving for Uy, Initial residual = 7.267406819e-11, Final residual = 7.267406819e-11, No Iterations 0
HFDIBRANS: Max error in U -> Ui is 0
HFDIBRANS: U converged to Ui within max tolerance 1e-08
GAMG:  Solving for p, Initial residual = 0.01330464356, Final residual = 7.685225102e-09, No Iterations 28
time step continuity errors : sum local = 1.570526862e-07, global = 6.467558195e-09, cumulative = 1.239904964e-07
DILUPBiCG:  Solving for omega, Initial residual = 0.0004040111001, Final residual = 6.74730022e-21, No Iterations 21
DILUPBiCG:  Solving for k, Initial residual = 0.009302833872, Final residual = 7.848243248e-21, No Iterations 23
HFDIBRANS: Max error in k -> ki is 0.003922637117
DILUPBiCG:  Solving for k, Initial residual = 3.925305444e-06, Final residual = 2.684294146e-21, No Iterations 15
HFDIBRANS: Max error in k -> ki is 4.137026809e-07
DILUPBiCG:  Solving for k, Initial residual = 4.667309783e-10, Final residual = 1.975456096e-21, No Iterations 12
HFDIBRANS: Max error in k -> ki is 1.676383213e-09
HFDIBRANS: k converged to ki within max tolerance 1e-08
bounding k, min: -1.676382213e-09 max: 0.304198351 average: 0.01246066604
ExecutionTime = 13.45 s  ClockTime = 13 s

Time = 25

DILUPBiCG:  Solving for Ux, Initial residual = 0.01051336873, Final residual = 7.001337726e-11, No Iterations 12
DILUPBiCG:  Solving for Uy, Initial residual = 0.0178177181, Final residual = 2.848863948e-11, No Iterations 14
HFDIBRANS: Max error in U -> Ui is 0.3659411057
DILUPBiCG:  Solving for Ux, Initial residual = 4.021109245e-05, Final residual = 2.57145034e-11, No Iterations 9
DILUPBiCG:  Solving for Uy, Initial residual = 8.404030703e-05, Final residual = 1.78767527e-11, No Iterations 10
HFDIBRANS: Max error in U -> Ui is 0.0067934367
DILUPBiCG:  Solving for Ux, Initial residual = 1.580049358e-07, Final residual = 7.185453489e-11, No Iterations 5
DILUPBiCG:  Solving for Uy, Initial residual = 6.472657271e-07, Final residual = 9.973492477e-11, No Iterations 6
HFDIBRANS: Max error in U -> Ui is 9.590809832e-05
DILUPBiCG:  Solving for Ux, Initial residual = 1.023147407e-09, Final residual = 7.405663748e-11, No Iterations 1
DILUPBiCG:  Solving for Uy, Initial residual = 6.559927878e-09, Final residual = 3.096780325e-11, No Iterations 3
HFDIBRANS: Max error in U -> Ui is 1.151129734e-06
DILUPBiCG:  Solving for Ux, Initial residual = 6.31574199e-11, Final residual = 6.31574199e-11, No Iterations 0
DILUPBiCG:  Solving for Uy, Initial residual = 7.911801712e-11, Final residual = 7.911801712e-11, No Iterations 0
HFDIBRANS: Max error in U -> Ui is 0
HFDIBRANS: U converged to Ui within max tolerance 1e-08
GAMG:  Solving for p, Initial residual = 0.01507843546, Final residual = 7.743679104e-09, No Iterations 28
time step continuity errors : sum local = 1.359649019e-07, global = 8.263455861e-09, cumulative = 1.322539523e-07
DILUPBiCG:  Solving for omega, Initial residual = 0.0003928838831, Final residual = 7.907916203e-22, No Iterations 22
DILUPBiCG:  Solving for k, Initial residual = 0.01083763233, Final residual = 6.837210597e-21, No Iterations 23
HFDIBRANS: Max error in k -> ki is 0.00465906249
DILUPBiCG:  Solving for k, Initial residual = 8.455768975e-06, Final residual = 1.15707806e-21, No Iterations 16
HFDIBRANS: Max error in k -> ki is 3.944304526e-31
HFDIBRANS: k converged to ki within max tolerance 1e-08
bounding k, min: 1e-15 max: 0.2982326536 average: 0.01255480955
ExecutionTime = 13.93 s  ClockTime = 14 s

Time = 26

DILUPBiCG:  Solving for Ux, Initial residual = 0.007645300829, Final residual = 6.949842375e-11, No Iterations 12
DILUPBiCG:  Solving for Uy, Initial residual = 0.01746247879, Final residual = 7.084061683e-11, No Iterations 14
HFDIBRANS: Max error in U -> Ui is 0.3579444077
DILUPBiCG:  Solving for Ux, Initial residual = 3.562356095e-05, Final residual = 2.191996572e-11, No Iterations 9
DILUPBiCG:  Solving for Uy, Initial residual = 8.349871348e-05, Final residual = 1.586744178e-11, No Iterations 10
HFDIBRANS: Max error in U -> Ui is 0.006864361418
DILUPBiCG:  Solving for Ux, Initial residual = 1.454306309e-07, Final residual = 6.439891308e-11, No Iterations 5
DILUPBiCG:  Solving for Uy, Initial residual = 6.30639349e-07, Final residual = 6.616059529e-11, No Iterations 6
HFDIBRANS: Max error in U -> Ui is 9.715247172e-05
DILUPBiCG:  Solving for Ux, Initial residual = 9.492934302e-10, Final residual = 6.759862089e-11, No Iterations 1
DILUPBiCG:  Solving for Uy, Initial residual = 6.338666439e-09, Final residual = 2.868937128e-11, No Iterations 3
HFDIBRANS: Max error in U -> Ui is 1.174777188e-06
DILUPBiCG:  Solving for Ux, Initial residual = 5.741303931e-11, Final residual = 5.741303931e-11, No Iterations 0
DILUPBiCG:  Solving for Uy, Initial residual = 7.642468723e-11, Final residual = 7.642468723e-11, No Iterations 0
HFDIBRANS: Max error in U -> Ui is 0
HFDIBRANS: U converged to Ui within max tolerance 1e-08
GAMG:  Solving for p, Initial residual = 0.02113956263, Final residual = 8.160216961e-09, No Iterations 31
time step continuity errors : sum local = 1.002977398e-07, global = -1.109551889e-09, cumulative = 1.311444004e-07
DILUPBiCG:  Solving for omega, Initial residual = 0.0003848604575, Final residual = 5.124125722e-21, No Iterations 21
DILUPBiCG:  Solving for k, Initial residual = 0.007477380944, Final residual = 3.221354275e-22, No Iterations 25
HFDIBRANS: Max error in k -> ki is 0.001494315341
DILUPBiCG:  Solving for k, Initial residual = 8.285559739e-08, Final residual = 2.372385721e-21, No Iterations 15
HFDIBRANS: Max error in k -> ki is 3.76510852e-07
DILUPBiCG:  Solving for k, Initial residual = 5.244809397e-11, Final residual = 1.564204088e-21, No Iterations 12
HFDIBRANS: Max error in k -> ki is 1.887285863e-09
HFDIBRANS: k converged to ki within max tolerance 1e-08
bounding k, min: -1.887284863e-09 max: 0.3117395779 average: 0.01264754806
ExecutionTime = 14.46 s  ClockTime = 14 s

Time = 27

DILUPBiCG:  Solving for Ux, Initial residual = 0.006060110936, Final residual = 6.536699891e-11, No Iterations 12
DILUPBiCG:  Solving for Uy, Initial residual = 0.01594246196, Final residual = 6.964898891e-11, No Iterations 14
HFDIBRANS: Max error in U -> Ui is 0.3585564612
DILUPBiCG:  Solving for Ux, Initial residual = 3.662068024e-05, Final residual = 2.058819085e-11, No Iterations 9
DILUPBiCG:  Solving for Uy, Initial residual = 8.412048344e-05, Final residual = 1.44917236e-11, No Iterations 10
HFDIBRANS: Max error in U -> Ui is 0.006833819365
DILUPBiCG:  Solving for Ux, Initial residual = 1.496529429e-07, Final residual = 5.932089623e-11, No Iterations 5
DILUPBiCG:  Solving for Uy, Initial residual = 6.495211245e-07, Final residual = 5.37632519e-11, No Iterations 6
HFDIBRANS: Max error in U -> Ui is 9.822937677e-05
DILUPBiCG:  Solving for Ux, Initial residual = 9.814938558e-10, Final residual = 6.870649779e-11, No Iterations 1
DILUPBiCG:  Solving for Uy, Initial residual = 6.697789202e-09, Final residual = 2.976828253e-11, No Iterations 3
HFDIBRANS: Max error in U -> Ui is 1.206280174e-06
DILUPBiCG:  Solving for Ux, Initial residual = 5.80206738e-11, Final residual = 5.80206738e-11, No Iterations 0
DILUPBiCG:  Solving for Uy, Initial residual = 8.229049731e-11, Final residual = 8.229049731e-11, No Iterations 0
HFDIBRANS: Max error in U -> Ui is 0
HFDIBRANS: U converged to Ui within max tolerance 1e-08
GAMG:  Solving for p, Initial residual = 0.04209785546, Final residual = 6.328568526e-09, No Iterations 32
time step continuity errors : sum local = 3.812329078e-08, global = 8.21148948e-10, cumulative = 1.319655493e-07
DILUPBiCG:  Solving for omega, Initial residual = 0.000377262606, Final residual = 4.248114123e-21, No Iterations 21
DILUPBiCG:  Solving for k, Initial residual = 0.01048307308, Final residual = 6.2535982e-21, No Iterations 23
HFDIBRANS: Max error in k -> ki is 0.004315389512
DILUPBiCG:  Solving for k, Initial residual = 4.834468956e-06, Final residual = 4.65357987e-21, No Iterations 15
HFDIBRANS: Max error in k -> ki is 7.690724784e-09
HFDIBRANS: k converged to ki within max tolerance 1e-08
bounding k, min: -7.690723784e-09 max: 0.324557802 average: 0.01273860883
ExecutionTime = 14.95 s  ClockTime = 15 s

Time = 28

DILUPBiCG:  Solving for Ux, Initial residual = 0.005008764496, Final residual = 2.261878997e-12, No Iterations 14
DILUPBiCG:  Solving for Uy, Initial residual = 0.01453406792, Final residual = 2.229069226e-11, No Iterations 14
HFDIBRANS: Max error in U -> Ui is 0.33716121
DILUPBiCG:  Solving for Ux, Initial residual = 2.974985456e-05, Final residual = 1.725187152e-11, No Iterations 9
DILUPBiCG:  Solving for Uy, Initial residual = 8.181271673e-05, Final residual = 1.287069557e-11, No Iterations 10
HFDIBRANS: Max error in U -> Ui is 0.006842132326
DILUPBiCG:  Solving for Ux, Initial residual = 1.386696525e-07, Final residual = 5.393606956e-11, No Iterations 5
DILUPBiCG:  Solving for Uy, Initial residual = 6.494475042e-07, Final residual = 8.630465021e-11, No Iterations 6
HFDIBRANS: Max error in U -> Ui is 0.0001014403052
DILUPBiCG:  Solving for Ux, Initial residual = 9.791546657e-10, Final residual = 7.262947629e-11, No Iterations 1
DILUPBiCG:  Solving for Uy, Initial residual = 6.912068791e-09, Final residual = 3.290900595e-11, No Iterations 3
HFDIBRANS: Max error in U -> Ui is 1.279503088e-06
DILUPBiCG:  Solving for Ux, Initial residual = 6.113077285e-11, Final residual = 6.113077285e-11, No Iterations 0
DILUPBiCG:  Solving for Uy, Initial residual = 8.874131301e-11, Final residual = 8.874131301e-11, No Iterations 0
HFDIBRANS: Max error in U -> Ui is 0
HFDIBRANS: U converged to Ui within max tolerance 1e-08
GAMG:  Solving for p, Initial residual = 0.03331698888, Final residual = 6.679917613e-09, No Iterations 30
time step continuity errors : sum local = 4.979075946e-08, global = -8.580684239e-10, cumulative = 1.311074809e-07
DILUPBiCG:  Solving for omega, Initial residual = 0.0003734226612, Final residual = 3.817062574e-21, No Iterations 21
DILUPBiCG:  Solving for k, Initial residual = 0.007995962857, Final residual = 6.098767332e-21, No Iterations 23
HFDIBRANS: Max error in k -> ki is 0.002352702351
DILUPBiCG:  Solving for k, Initial residual = 2.741465574e-06, Final residual = 1.374673405e-21, No Iterations 16
HFDIBRANS: Max error in k -> ki is 9.266938523e-08
DILUPBiCG:  Solving for k, Initial residual = 6.03349771e-10, Final residual = 8.225034438e-21, No Iterations 12
HFDIBRANS: Max error in k -> ki is 2.110561415e-09
HFDIBRANS: k converged to ki within max tolerance 1e-08
bounding k, min: -2.110560415e-09 max: 0.3365534219 average: 0.01282874309
ExecutionTime = 15.48 s  ClockTime = 15 s

Time = 29

DILUPBiCG:  Solving for Ux, Initial residual = 0.006267257733, Final residual = 6.558670579e-11, No Iterations 12
DILUPBiCG:  Solving for Uy, Initial residual = 0.01444555961, Final residual = 1.782306497e-11, No Iterations 14
HFDIBRANS: Max error in U -> Ui is 0.3231932788
DILUPBiCG:  Solving for Ux, Initial residual = 2.856469166e-05, Final residual = 1.581788827e-11, No Iterations 9
DILUPBiCG:  Solving for Uy, Initial residual = 8.00791289e-05, Final residual = 1.186850376e-11, No Iterations 10
HFDIBRANS: Max error in U -> Ui is 0.006842442778
DILUPBiCG:  Solving for Ux, Initial residual = 1.437243054e-07, Final residual = 5.270179023e-11, No Iterations 5
DILUPBiCG:  Solving for Uy, Initial residual = 6.589373539e-07, Final residual = 7.586397581e-11, No Iterations 7
HFDIBRANS: Max error in U -> Ui is 0.0001030197533
DILUPBiCG:  Solving for Ux, Initial residual = 1.049411157e-09, Final residual = 7.756843771e-11, No Iterations 1
DILUPBiCG:  Solving for Uy, Initial residual = 7.186844336e-09, Final residual = 3.610370352e-11, No Iterations 3
HFDIBRANS: Max error in U -> Ui is 1.319998298e-06
DILUPBiCG:  Solving for Ux, Initial residual = 6.505009409e-11, Final residual = 6.505009409e-11, No Iterations 0
DILUPBiCG:  Solving for Uy, Initial residual = 9.59790762e-11, Final residual = 9.59790762e-11, No Iterations 0
HFDIBRANS: Max error in U -> Ui is 0
HFDIBRANS: U converged to Ui within max tolerance 1e-08
GAMG:  Solving for p, Initial residual = 0.0197390677, Final residual = 5.958597397e-09, No Iterations 30
time step continuity errors : sum local = 7.280156317e-08, global = 5.720412939e-10, cumulative = 1.316795222e-07
DILUPBiCG:  Solving for omega, Initial residual = 0.0003774190065, Final residual = 3.72884188e-21, No Iterations 21
DILUPBiCG:  Solving for k, Initial residual = 0.01324293585, Final residual = 4.873445091e-21, No Iterations 23
HFDIBRANS: Max error in k -> ki is 0.004005295336
DILUPBiCG:  Solving for k, Initial residual = 8.808571397e-06, Final residual = 4.223725186e-21, No Iterations 16
HFDIBRANS: Max error in k -> ki is -0
HFDIBRANS: k converged to ki within max tolerance 1e-08
ExecutionTime = 15.95 s  ClockTime = 16 s

Time = 30

DILUPBiCG:  Solving for Ux, Initial residual = 0.00744793754, Final residual = 4.409016584e-11, No Iterations 12
DILUPBiCG:  Solving for Uy, Initial residual = 0.01460127805, Final residual = 1.554844128e-11, No Iterations 14
HFDIBRANS: Max error in U -> Ui is 0.2941854648
DILUPBiCG:  Solving for Ux, Initial residual = 2.055519266e-05, Final residual = 1.259300364e-11, No Iterations 9
DILUPBiCG:  Solving for Uy, Initial residual = 7.599456506e-05, Final residual = 1.048954913e-11, No Iterations 10
HFDIBRANS: Max error in U -> Ui is 0.006848919259
DILUPBiCG:  Solving for Ux, Initial residual = 1.194192526e-07, Final residual = 4.731063345e-11, No Iterations 5
DILUPBiCG:  Solving for Uy, Initial residual = 6.171058828e-07, Final residual = 5.152687797e-11, No Iterations 7
HFDIBRANS: Max error in U -> Ui is 0.0001027789675
DILUPBiCG:  Solving for Ux, Initial residual = 9.402675797e-10, Final residual = 6.849842825e-11, No Iterations 1
DILUPBiCG:  Solving for Uy, Initial residual = 6.654431022e-09, Final residual = 3.454684084e-11, No Iterations 3
HFDIBRANS: Max error in U -> Ui is 1.318954509e-06
DILUPBiCG:  Solving for Ux, Initial residual = 5.691209848e-11, Final residual = 5.691209848e-11, No Iterations 0
DILUPBiCG:  Solving for Uy, Initial residual = 8.845179581e-11, Final residual = 8.845179581e-11, No Iterations 0
HFDIBRANS: Max error in U -> Ui is 0
HFDIBRANS: U converged to Ui within max tolerance 1e-08
GAMG:  Solving for p, Initial residual = 0.01558778032, Final residual = 4.625246729e-09, No Iterations 28
time step continuity errors : sum local = 7.021640688e-08, global = 2.997501014e-10, cumulative = 1.319792723e-07
DILUPBiCG:  Solving for omega, Initial residual = 0.0003822038902, Final residual = 3.580616481e-21, No Iterations 21
DILUPBiCG:  Solving for k, Initial residual = 0.00767273382, Final residual = 4.742339852e-21, No Iterations 23
HFDIBRANS: Max error in k -> ki is 0.001858784034
DILUPBiCG:  Solving for k, Initial residual = 6.099151821e-08, Final residual = 1.181570299e-21, No Iterations 15
HFDIBRANS: Max error in k -> ki is 8.444484613e-09
HFDIBRANS: k converged to ki within max tolerance 1e-08
bounding k, min: -8.444483613e-09 max: 0.3632870608 average: 0.01300675671
ExecutionTime = 16.41 s  ClockTime = 16 s

Time = 31

DILUPBiCG:  Solving for Ux, Initial residual = 0.007750391964, Final residual = 4.635131676e-11, No Iterations 12
DILUPBiCG:  Solving for Uy, Initial residual = 0.01451690371, Final residual = 1.403260868e-11, No Iterations 14
HFDIBRANS: Max error in U -> Ui is 0.2699998938
DILUPBiCG:  Solving for Ux, Initial residual = 1.692101443e-05, Final residual = 2.105573348e-11, No Iterations 9
DILUPBiCG:  Solving for Uy, Initial residual = 7.371397847e-05, Final residual = 9.79452226e-12, No Iterations 10
HFDIBRANS: Max error in U -> Ui is 0.006787854593
DILUPBiCG:  Solving for Ux, Initial residual = 1.111476051e-07, Final residual = 4.398752034e-11, No Iterations 5
DILUPBiCG:  Solving for Uy, Initial residual = 6.167600575e-07, Final residual = 3.950726356e-11, No Iterations 7
HFDIBRANS: Max error in U -> Ui is 0.0001045889394
DILUPBiCG:  Solving for Ux, Initial residual = 9.50838112e-10, Final residual = 7.196064344e-11, No Iterations 1
DILUPBiCG:  Solving for Uy, Initial residual = 6.847086895e-09, Final residual = 3.745339619e-11, No Iterations 3
HFDIBRANS: Max error in U -> Ui is 1.371822021e-06
DILUPBiCG:  Solving for Ux, Initial residual = 5.924356423e-11, Final residual = 5.924356423e-11, No Iterations 0
DILUPBiCG:  Solving for Uy, Initial residual = 9.37755194e-11, Final residual = 9.37755194e-11, No Iterations 0
HFDIBRANS: Max error in U -> Ui is 0
HFDIBRANS: U converged to Ui within max tolerance 1e-08
GAMG:  Solving for p, Initial residual = 0.01456004534, Final residual = 9.901241815e-09, No Iterations 28
time step continuity errors : sum local = 1.601984668e-07, global = -1.278773977e-08, cumulative = 1.191915325e-07
DILUPBiCG:  Solving for omega, Initial residual = 0.0003919388789, Final residual = 3.341059341e-21, No Iterations 21
DILUPBiCG:  Solving for k, Initial residual = 0.007948387073, Final residual = 7.277375541e-21, No Iterations 23
HFDIBRANS: Max error in k -> ki is 0.00191962831
DILUPBiCG:  Solving for k, Initial residual = 8.170343814e-07, Final residual = 1.264463108e-21, No Iterations 15
HFDIBRANS: Max error in k -> ki is 1.972152263e-31
HFDIBRANS: k converged to ki within max tolerance 1e-08
bounding k, min: 1e-15 max: 0.3742122234 average: 0.01309572073
ExecutionTime = 16.89 s  ClockTime = 16 s

Time = 32

DILUPBiCG:  Solving for Ux, Initial residual = 0.007287402397, Final residual = 4.742952474e-11, No Iterations 12
DILUPBiCG:  Solving for Uy, Initial residual = 0.014158393, Final residual = 9.759461767e-11, No Iterations 13
HFDIBRANS: Max error in U -> Ui is 0.2418157816
DILUPBiCG:  Solving for Ux, Initial residual = 1.189167363e-05, Final residual = 2.943992942e-12, No Iterations 10
DILUPBiCG:  Solving for Uy, Initial residual = 7.063518001e-05, Final residual = 8.835809086e-12, No Iterations 10
HFDIBRANS: Max error in U -> Ui is 0.006812373427
DILUPBiCG:  Solving for Ux, Initial residual = 9.349570526e-08, Final residual = 4.561130046e-11, No Iterations 5
DILUPBiCG:  Solving for Uy, Initial residual = 6.063796863e-07, Final residual = 3.02010749e-11, No Iterations 7
HFDIBRANS: Max error in U -> Ui is 0.0001043092989
DILUPBiCG:  Solving for Ux, Initial residual = 9.012681671e-10, Final residual = 6.510481044e-11, No Iterations 1
DILUPBiCG:  Solving for Uy, Initial residual = 6.700173945e-09, Final residual = 3.752006306e-11, No Iterations 3
HFDIBRANS: Max error in U -> Ui is 1.36980895e-06
DILUPBiCG:  Solving for Ux, Initial residual = 5.265696756e-11, Final residual = 5.265696756e-11, No Iterations 0
DILUPBiCG:  Solving for Uy, Initial residual = 9.211481013e-11, Final residual = 9.211481013e-11, No Iterations 0
HFDIBRANS: Max error in U -> Ui is 0
HFDIBRANS: U converged to Ui within max tolerance 1e-08
GAMG:  Solving for p, Initial residual = 0.01503554398, Final residual = 8.414870774e-09, No Iterations 31
time step continuity errors : sum local = 1.33262007e-07, global = -1.078232763e-08, cumulative = 1.084092049e-07
DILUPBiCG:  Solving for omega, Initial residual = 0.000389365629, Final residual = 3.617977041e-21, No Iterations 21
DILUPBiCG:  Solving for k, Initial residual = 0.007543745162, Final residual = 2.496131801e-21, No Iterations 24
[...]
DILUPBiCG:  Solving for Uy, Initial residual = 5.250215361e-11, Final residual = 5.250215361e-11, No Iterations 0
HFDIBRANS: Max error in U -> Ui is 0
HFDIBRANS: U converged to Ui within max tolerance 1e-08
GAMG:  Solving for p, Initial residual = 0.007925692387, Final residual = 9.143677572e-09, No Iterations 17
time step continuity errors : sum local = 2.958219951e-07, global = -2.525879364e-10, cumulative = -8.040564823e-08
DILUPBiCG:  Solving for omega, Initial residual = 1.008402221e-05, Final residual = 6.530194892e-21, No Iterations 17
DILUPBiCG:  Solving for k, Initial residual = 0.001024813564, Final residual = 3.90349736e-21, No Iterations 20
HFDIBRANS: Max error in k -> ki is 0.0005595999841
DILUPBiCG:  Solving for k, Initial residual = 4.71020807e-07, Final residual = 3.892124742e-22, No Iterations 14
HFDIBRANS: Max error in k -> ki is 4.881002109e-10
HFDIBRANS: k converged to ki within max tolerance 1e-08
bounding k, min: -4.880992109e-10 max: 0.3014612822 average: 0.02326852499
ExecutionTime = 507.72 s  ClockTime = 508 s

Time = 994

DILUPBiCG:  Solving for Ux, Initial residual = 8.655020063e-05, Final residual = 5.131842819e-11, No Iterations 10
DILUPBiCG:  Solving for Uy, Initial residual = 0.001558582034, Final residual = 3.261415348e-11, No Iterations 12
HFDIBRANS: Max error in U -> Ui is 0.1243363987
DILUPBiCG:  Solving for Ux, Initial residual = 2.756315995e-06, Final residual = 5.993606479e-11, No Iterations 7
DILUPBiCG:  Solving for Uy, Initial residual = 4.973867275e-05, Final residual = 5.337734031e-11, No Iterations 10
HFDIBRANS: Max error in U -> Ui is 0.01518926301
DILUPBiCG:  Solving for Ux, Initial residual = 3.796657524e-08, Final residual = 6.680935776e-11, No Iterations 4
DILUPBiCG:  Solving for Uy, Initial residual = 1.552944743e-06, Final residual = 6.730741869e-11, No Iterations 8
HFDIBRANS: Max error in U -> Ui is 0.0006423528806
DILUPBiCG:  Solving for Ux, Initial residual = 9.991291803e-10, Final residual = 2.752411671e-11, No Iterations 2
DILUPBiCG:  Solving for Uy, Initial residual = 6.166358379e-08, Final residual = 5.20322152e-11, No Iterations 6
HFDIBRANS: Max error in U -> Ui is 2.716013453e-05
DILUPBiCG:  Solving for Ux, Initial residual = 3.894803448e-11, Final residual = 3.894803448e-11, No Iterations 0
DILUPBiCG:  Solving for Uy, Initial residual = 2.569403662e-09, Final residual = 4.180613635e-11, No Iterations 2
HFDIBRANS: Max error in U -> Ui is 1.052418519e-06
DILUPBiCG:  Solving for Ux, Initial residual = 3.894803448e-11, Final residual = 3.894803448e-11, No Iterations 0
DILUPBiCG:  Solving for Uy, Initial residual = 1.088119214e-10, Final residual = 1.609349692e-11, No Iterations 1
HFDIBRANS: Max error in U -> Ui is 3.853348081e-08
DILUPBiCG:  Solving for Ux, Initial residual = 3.894803448e-11, Final residual = 3.894803448e-11, No Iterations 0
DILUPBiCG:  Solving for Uy, Initial residual = 1.000164445e-11, Final residual = 1.000164445e-11, No Iterations 0
HFDIBRANS: Max error in U -> Ui is 0
HFDIBRANS: U converged to Ui within max tolerance 1e-08
GAMG:  Solving for p, Initial residual = 0.007338896552, Final residual = 8.664305586e-09, No Iterations 18
time step continuity errors : sum local = 2.245035103e-07, global = -1.713504712e-08, cumulative = -9.754069535e-08
DILUPBiCG:  Solving for omega, Initial residual = 9.543165478e-06, Final residual = 7.192990521e-21, No Iterations 17
DILUPBiCG:  Solving for k, Initial residual = 0.00066456156, Final residual = 3.077946795e-21, No Iterations 20
HFDIBRANS: Max error in k -> ki is 0.0005745391008
DILUPBiCG:  Solving for k, Initial residual = 2.37698718e-07, Final residual = 1.28686688e-21, No Iterations 14
HFDIBRANS: Max error in k -> ki is 2.058126653e-08
DILUPBiCG:  Solving for k, Initial residual = 1.692522885e-11, Final residual = 3.606389505e-21, No Iterations 9
HFDIBRANS: Max error in k -> ki is 3.281265527e-12
HFDIBRANS: k converged to ki within max tolerance 1e-08
bounding k, min: -3.280265527e-12 max: 0.3016209403 average: 0.02326999059
ExecutionTime = 508.33 s  ClockTime = 508 s

Time = 995

DILUPBiCG:  Solving for Ux, Initial residual = 8.580986145e-05, Final residual = 8.772922479e-11, No Iterations 9
DILUPBiCG:  Solving for Uy, Initial residual = 0.001438949165, Final residual = 6.215306289e-11, No Iterations 11
HFDIBRANS: Max error in U -> Ui is 0.0569175785
DILUPBiCG:  Solving for Ux, Initial residual = 2.665996001e-06, Final residual = 3.857897796e-11, No Iterations 8
DILUPBiCG:  Solving for Uy, Initial residual = 2.431465905e-05, Final residual = 2.171969036e-11, No Iterations 9
HFDIBRANS: Max error in U -> Ui is 0.00409545183
DILUPBiCG:  Solving for Ux, Initial residual = 3.481068173e-08, Final residual = 8.562182222e-11, No Iterations 3
DILUPBiCG:  Solving for Uy, Initial residual = 4.212992706e-07, Final residual = 2.873618518e-11, No Iterations 7
HFDIBRANS: Max error in U -> Ui is 0.0001962161494
DILUPBiCG:  Solving for Ux, Initial residual = 9.223222754e-10, Final residual = 7.59914748e-11, No Iterations 1
DILUPBiCG:  Solving for Uy, Initial residual = 1.342641131e-08, Final residual = 8.574536982e-11, No Iterations 3
HFDIBRANS: Max error in U -> Ui is 8.964428036e-06
DILUPBiCG:  Solving for Ux, Initial residual = 8.123087296e-11, Final residual = 8.123087296e-11, No Iterations 0
DILUPBiCG:  Solving for Uy, Initial residual = 5.449786067e-10, Final residual = 8.375292737e-11, No Iterations 1
HFDIBRANS: Max error in U -> Ui is 1.59207591e-07
DILUPBiCG:  Solving for Ux, Initial residual = 8.123087296e-11, Final residual = 8.123087296e-11, No Iterations 0
DILUPBiCG:  Solving for Uy, Initial residual = 5.567350375e-11, Final residual = 5.567350375e-11, No Iterations 0
HFDIBRANS: Max error in U -> Ui is 0
HFDIBRANS: U converged to Ui within max tolerance 1e-08
GAMG:  Solving for p, Initial residual = 0.007455897382, Final residual = 8.968574233e-09, No Iterations 17
time step continuity errors : sum local = 2.861622073e-07, global = -4.35748381e-09, cumulative = -1.018981792e-07
DILUPBiCG:  Solving for omega, Initial residual = 9.813201494e-06, Final residual = 7.567983867e-21, No Iterations 17
DILUPBiCG:  Solving for k, Initial residual = 0.0009265276149, Final residual = 4.331831798e-21, No Iterations 20
HFDIBRANS: Max error in k -> ki is 0.0006231774475
DILUPBiCG:  Solving for k, Initial residual = 3.897976738e-07, Final residual = 9.426459331e-21, No Iterations 13
HFDIBRANS: Max error in k -> ki is 9.97519744e-10
HFDIBRANS: k converged to ki within max tolerance 1e-08
bounding k, min: -9.97518744e-10 max: 0.3017936504 average: 0.02327136574
ExecutionTime = 508.86 s  ClockTime = 509 s

Time = 996

DILUPBiCG:  Solving for Ux, Initial residual = 8.758802886e-05, Final residual = 9.641506072e-11, No Iterations 9
DILUPBiCG:  Solving for Uy, Initial residual = 0.001558633885, Final residual = 2.181708159e-11, No Iterations 12
HFDIBRANS: Max error in U -> Ui is 0.1317565492
DILUPBiCG:  Solving for Ux, Initial residual = 2.689627618e-06, Final residual = 3.031500278e-11, No Iterations 7
DILUPBiCG:  Solving for Uy, Initial residual = 4.624626807e-05, Final residual = 2.113171022e-11, No Iterations 10
HFDIBRANS: Max error in U -> Ui is 0.01337256368
DILUPBiCG:  Solving for Ux, Initial residual = 3.416439826e-08, Final residual = 3.721722138e-11, No Iterations 5
DILUPBiCG:  Solving for Uy, Initial residual = 1.32847096e-06, Final residual = 2.147973042e-11, No Iterations 8
HFDIBRANS: Max error in U -> Ui is 0.0005370743429
DILUPBiCG:  Solving for Ux, Initial residual = 7.930599585e-10, Final residual = 7.91152988e-11, No Iterations 1
DILUPBiCG:  Solving for Uy, Initial residual = 4.958558821e-08, Final residual = 5.565551169e-11, No Iterations 5
HFDIBRANS: Max error in U -> Ui is 2.154823712e-05
DILUPBiCG:  Solving for Ux, Initial residual = 6.925693829e-11, Final residual = 6.925693829e-11, No Iterations 0
DILUPBiCG:  Solving for Uy, Initial residual = 1.945915885e-09, Final residual = 5.24100518e-11, No Iterations 2
HFDIBRANS: Max error in U -> Ui is 7.874938187e-07
DILUPBiCG:  Solving for Ux, Initial residual = 6.925693829e-11, Final residual = 6.925693829e-11, No Iterations 0
DILUPBiCG:  Solving for Uy, Initial residual = 6.109896581e-11, Final residual = 6.109896581e-11, No Iterations 0
HFDIBRANS: Max error in U -> Ui is 0
HFDIBRANS: U converged to Ui within max tolerance 1e-08
GAMG:  Solving for p, Initial residual = 0.007127511433, Final residual = 4.579079363e-09, No Iterations 19
time step continuity errors : sum local = 1.209464675e-07, global = -9.181082953e-09, cumulative = -1.110792621e-07
DILUPBiCG:  Solving for omega, Initial residual = 9.409919377e-06, Final residual = 7.979265366e-21, No Iterations 17
DILUPBiCG:  Solving for k, Initial residual = 0.000664657435, Final residual = 1.904564511e-21, No Iterations 21
HFDIBRANS: Max error in k -> ki is 0.0005786291801
DILUPBiCG:  Solving for k, Initial residual = 2.530814559e-07, Final residual = 1.868209948e-21, No Iterations 12
HFDIBRANS: Max error in k -> ki is 2.422534357e-08
DILUPBiCG:  Solving for k, Initial residual = 1.945210299e-11, Final residual = 3.756871734e-21, No Iterations 9
HFDIBRANS: Max error in k -> ki is 5.913365946e-12
HFDIBRANS: k converged to ki within max tolerance 1e-08
bounding k, min: -5.912365946e-12 max: 0.3019800896 average: 0.02327292531
ExecutionTime = 509.37 s  ClockTime = 509 s

Time = 997

DILUPBiCG:  Solving for Ux, Initial residual = 8.567361496e-05, Final residual = 8.771798964e-11, No Iterations 9
DILUPBiCG:  Solving for Uy, Initial residual = 0.001433215884, Final residual = 5.976233186e-11, No Iterations 11
HFDIBRANS: Max error in U -> Ui is 0.05461317735
DILUPBiCG:  Solving for Ux, Initial residual = 2.656014614e-06, Final residual = 8.542273846e-11, No Iterations 6
DILUPBiCG:  Solving for Uy, Initial residual = 2.393322146e-05, Final residual = 1.338745565e-11, No Iterations 9
HFDIBRANS: Max error in U -> Ui is 0.003550358131
DILUPBiCG:  Solving for Ux, Initial residual = 3.357015388e-08, Final residual = 6.758527065e-11, No Iterations 4
DILUPBiCG:  Solving for Uy, Initial residual = 3.994880082e-07, Final residual = 3.281289051e-11, No Iterations 6
HFDIBRANS: Max error in U -> Ui is 0.0001687346938
DILUPBiCG:  Solving for Ux, Initial residual = 8.686001366e-10, Final residual = 7.236230186e-11, No Iterations 1
DILUPBiCG:  Solving for Uy, Initial residual = 1.223790546e-08, Final residual = 4.538485909e-11, No Iterations 4
HFDIBRANS: Max error in U -> Ui is 7.606932416e-06
DILUPBiCG:  Solving for Ux, Initial residual = 7.773339019e-11, Final residual = 7.773339019e-11, No Iterations 0
DILUPBiCG:  Solving for Uy, Initial residual = 5.05082889e-10, Final residual = 7.856434061e-11, No Iterations 1
HFDIBRANS: Max error in U -> Ui is 1.377692203e-07
DILUPBiCG:  Solving for Ux, Initial residual = 7.773339019e-11, Final residual = 7.773339019e-11, No Iterations 0
DILUPBiCG:  Solving for Uy, Initial residual = 5.201434444e-11, Final residual = 5.201434444e-11, No Iterations 0
HFDIBRANS: Max error in U -> Ui is 0
HFDIBRANS: U converged to Ui within max tolerance 1e-08
GAMG:  Solving for p, Initial residual = 0.007685437551, Final residual = 9.623143279e-09, No Iterations 17
time step continuity errors : sum local = 2.760063461e-07, global = -1.114960722e-08, cumulative = -1.222288693e-07
DILUPBiCG:  Solving for omega, Initial residual = 9.866879441e-06, Final residual = 9.70072585e-21, No Iterations 17
DILUPBiCG:  Solving for k, Initial residual = 0.0009438198182, Final residual = 3.826177567e-21, No Iterations 21
HFDIBRANS: Max error in k -> ki is 0.0005734578681
DILUPBiCG:  Solving for k, Initial residual = 4.066889071e-07, Final residual = 9.084746966e-21, No Iterations 13
HFDIBRANS: Max error in k -> ki is 4.655091711e-10
HFDIBRANS: k converged to ki within max tolerance 1e-08
bounding k, min: -4.655081711e-10 max: 0.3021807134 average: 0.02327442614
ExecutionTime = 509.85 s  ClockTime = 510 s

Time = 998

DILUPBiCG:  Solving for Ux, Initial residual = 8.529810485e-05, Final residual = 8.58623767e-11, No Iterations 9
DILUPBiCG:  Solving for Uy, Initial residual = 0.00145624196, Final residual = 1.855645367e-11, No Iterations 12
HFDIBRANS: Max error in U -> Ui is 0.05923714284
DILUPBiCG:  Solving for Ux, Initial residual = 2.549627097e-06, Final residual = 1.789842477e-11, No Iterations 8
DILUPBiCG:  Solving for Uy, Initial residual = 3.342682164e-05, Final residual = 1.411651518e-11, No Iterations 10
HFDIBRANS: Max error in U -> Ui is 0.006912670032
DILUPBiCG:  Solving for Ux, Initial residual = 2.962448836e-08, Final residual = 8.136502379e-11, No Iterations 5
DILUPBiCG:  Solving for Uy, Initial residual = 8.555560924e-07, Final residual = 4.322624355e-11, No Iterations 8
HFDIBRANS: Max error in U -> Ui is 0.0003148886187
DILUPBiCG:  Solving for Ux, Initial residual = 6.742990623e-10, Final residual = 6.215849133e-11, No Iterations 1
DILUPBiCG:  Solving for Uy, Initial residual = 3.352657412e-08, Final residual = 5.805412817e-11, No Iterations 5
HFDIBRANS: Max error in U -> Ui is 1.42668367e-05
DILUPBiCG:  Solving for Ux, Initial residual = 5.68485872e-11, Final residual = 5.68485872e-11, No Iterations 0
DILUPBiCG:  Solving for Uy, Initial residual = 1.465950384e-09, Final residual = 2.399671993e-11, No Iterations 2
HFDIBRANS: Max error in U -> Ui is 5.782108299e-07
DILUPBiCG:  Solving for Ux, Initial residual = 5.68485872e-11, Final residual = 5.68485872e-11, No Iterations 0
DILUPBiCG:  Solving for Uy, Initial residual = 6.46685918e-11, Final residual = 6.46685918e-11, No Iterations 0
HFDIBRANS: Max error in U -> Ui is 0
HFDIBRANS: U converged to Ui within max tolerance 1e-08
GAMG:  Solving for p, Initial residual = 0.007453067217, Final residual = 4.731987572e-09, No Iterations 19
time step continuity errors : sum local = 1.242290811e-07, global = -5.697163069e-09, cumulative = -1.279260324e-07
DILUPBiCG:  Solving for omega, Initial residual = 9.552515803e-06, Final residual = 1.474934187e-21, No Iterations 18
DILUPBiCG:  Solving for k, Initial residual = 0.0006568806329, Final residual = 3.186932603e-21, No Iterations 20
HFDIBRANS: Max error in k -> ki is 0.0005843112452
DILUPBiCG:  Solving for k, Initial residual = 2.258381478e-07, Final residual = 6.369108023e-21, No Iterations 13
HFDIBRANS: Max error in k -> ki is 1.746968341e-08
DILUPBiCG:  Solving for k, Initial residual = 1.593318442e-11, Final residual = 6.639481223e-21, No Iterations 9
HFDIBRANS: Max error in k -> ki is 3.396409017e-12
HFDIBRANS: k converged to ki within max tolerance 1e-08
bounding k, min: -3.395409017e-12 max: 0.3023918327 average: 0.02327600053
ExecutionTime = 510.37 s  ClockTime = 510 s

Time = 999

DILUPBiCG:  Solving for Ux, Initial residual = 8.476175745e-05, Final residual = 8.300734048e-11, No Iterations 9
DILUPBiCG:  Solving for Uy, Initial residual = 0.001418991213, Final residual = 6.108788921e-11, No Iterations 11
HFDIBRANS: Max error in U -> Ui is 0.05492978317
DILUPBiCG:  Solving for Ux, Initial residual = 2.578876061e-06, Final residual = 7.16279696e-11, No Iterations 6
DILUPBiCG:  Solving for Uy, Initial residual = 2.382209589e-05, Final residual = 3.734514994e-11, No Iterations 9
HFDIBRANS: Max error in U -> Ui is 0.003009033058
DILUPBiCG:  Solving for Ux, Initial residual = 2.990142867e-08, Final residual = 6.830585661e-11, No Iterations 5
DILUPBiCG:  Solving for Uy, Initial residual = 3.834146182e-07, Final residual = 4.213946588e-11, No Iterations 6
HFDIBRANS: Max error in U -> Ui is 0.0001370859618
DILUPBiCG:  Solving for Ux, Initial residual = 6.478826773e-10, Final residual = 5.518951959e-11, No Iterations 1
DILUPBiCG:  Solving for Uy, Initial residual = 1.108746806e-08, Final residual = 3.429823354e-11, No Iterations 4
HFDIBRANS: Max error in U -> Ui is 6.048957677e-06
DILUPBiCG:  Solving for Ux, Initial residual = 5.746988656e-11, Final residual = 5.746988656e-11, No Iterations 0
DILUPBiCG:  Solving for Uy, Initial residual = 4.319774249e-10, Final residual = 6.797089372e-11, No Iterations 1
HFDIBRANS: Max error in U -> Ui is 1.238196895e-07
DILUPBiCG:  Solving for Ux, Initial residual = 5.746988656e-11, Final residual = 5.746988656e-11, No Iterations 0
DILUPBiCG:  Solving for Uy, Initial residual = 4.481698173e-11, Final residual = 4.481698173e-11, No Iterations 0
HFDIBRANS: Max error in U -> Ui is 0
HFDIBRANS: U converged to Ui within max tolerance 1e-08
GAMG:  Solving for p, Initial residual = 0.007448444286, Final residual = 8.345463365e-09, No Iterations 17
time step continuity errors : sum local = 2.308763582e-07, global = -3.033045279e-09, cumulative = -1.309590777e-07
DILUPBiCG:  Solving for omega, Initial residual = 9.864254393e-06, Final residual = 6.661574969e-21, No Iterations 17
DILUPBiCG:  Solving for k, Initial residual = 0.0008958886778, Final residual = 3.455446008e-22, No Iterations 21
HFDIBRANS: Max error in k -> ki is 0.0006116893791
DILUPBiCG:  Solving for k, Initial residual = 3.628282263e-07, Final residual = 2.959158232e-22, No Iterations 14
HFDIBRANS: Max error in k -> ki is 1.336793058e-09
HFDIBRANS: k converged to ki within max tolerance 1e-08
bounding k, min: -1.336792058e-09 max: 0.3026064286 average: 0.02327746585
ExecutionTime = 510.83 s  ClockTime = 511 s

Time = 1000

DILUPBiCG:  Solving for Ux, Initial residual = 8.515737125e-05, Final residual = 8.560391784e-11, No Iterations 9
DILUPBiCG:  Solving for Uy, Initial residual = 0.001447094171, Final residual = 1.249924084e-11, No Iterations 12
HFDIBRANS: Max error in U -> Ui is 0.06547902361
DILUPBiCG:  Solving for Ux, Initial residual = 2.613624299e-06, Final residual = 7.939811697e-11, No Iterations 6
DILUPBiCG:  Solving for Uy, Initial residual = 3.359373554e-05, Final residual = 8.111539676e-12, No Iterations 11
HFDIBRANS: Max error in U -> Ui is 0.007397127688
DILUPBiCG:  Solving for Ux, Initial residual = 3.235322109e-08, Final residual = 6.425810778e-11, No Iterations 5
DILUPBiCG:  Solving for Uy, Initial residual = 8.772252532e-07, Final residual = 5.144198638e-11, No Iterations 8
HFDIBRANS: Max error in U -> Ui is 0.000342827295
DILUPBiCG:  Solving for Ux, Initial residual = 7.926083943e-10, Final residual = 7.442428921e-11, No Iterations 1
DILUPBiCG:  Solving for Uy, Initial residual = 3.518502312e-08, Final residual = 7.839464441e-11, No Iterations 4
HFDIBRANS: Max error in U -> Ui is 1.582682272e-05
DILUPBiCG:  Solving for Ux, Initial residual = 6.803049218e-11, Final residual = 6.803049218e-11, No Iterations 0
DILUPBiCG:  Solving for Uy, Initial residual = 1.611229768e-09, Final residual = 2.70758343e-11, No Iterations 2
HFDIBRANS: Max error in U -> Ui is 6.408851202e-07
DILUPBiCG:  Solving for Ux, Initial residual = 6.803049218e-11, Final residual = 6.803049218e-11, No Iterations 0
DILUPBiCG:  Solving for Uy, Initial residual = 6.992663973e-11, Final residual = 6.992663973e-11, No Iterations 0
HFDIBRANS: Max error in U -> Ui is 0
HFDIBRANS: U converged to Ui within max tolerance 1e-08
GAMG:  Solving for p, Initial residual = 0.006924304271, Final residual = 8.27362072e-09, No Iterations 18
time step continuity errors : sum local = 2.119190055e-07, global = 5.769390331e-09, cumulative = -1.251896874e-07
DILUPBiCG:  Solving for omega, Initial residual = 9.448588267e-06, Final residual = 3.127199122e-21, No Iterations 18
DILUPBiCG:  Solving for k, Initial residual = 0.0007159091731, Final residual = 2.73865856e-22, No Iterations 21
HFDIBRANS: Max error in k -> ki is 0.0005719445478
DILUPBiCG:  Solving for k, Initial residual = 2.773915012e-07, Final residual = 1.466462602e-21, No Iterations 12
HFDIBRANS: Max error in k -> ki is 1.357067159e-08
DILUPBiCG:  Solving for k, Initial residual = 2.055712425e-11, Final residual = 4.977487295e-21, No Iterations 9
HFDIBRANS: Max error in k -> ki is 5.752666034e-12
HFDIBRANS: k converged to ki within max tolerance 1e-08
bounding k, min: -5.751666034e-12 max: 0.3028155288 average: 0.02327904021
ExecutionTime = 511.78 s  ClockTime = 512 s

End

