/*---------------------------------------------------------------------------*\
| =========                 |                                                 |
| \\      /  F ield         | OpenFOAM: The Open Source CFD Toolbox           |
|  \\    /   O peration     | Version:  2312                                  |
|   \\  /    A nd           | Website:  www.openfoam.com                      |
|    \\/     M anipulation  |                                                 |
\*---------------------------------------------------------------------------*/
Build  : _e651d635-20240208 OPENFOAM=2312 patch=240220 version=2312
Arch   : "LSB;label=32;scalar=64"
Exec   : simpleFoam
Date   : Oct 24 2025
Time   : 22:33:49
Host   : summit
PID    : 13229
I/O    : uncollated
Case   : /home/vecerniv/my_libs/lutils-rewrite/tests/bfs/simpleFoam_kE
nProcs : 1
trapFpe: Floating point exception trapping enabled (FOAM_SIGFPE).
fileModificationChecking : Monitoring run-time modified files using timeStampMaster (fileModificationSkew 5, maxFileModificationPolls 20)
allowSystemOperations : Allowing user-supplied system call operations

// * * * * * * * * * * * * * * * * * * * * * * * * * * * * * * * * * * * * * //
Create time

Create mesh for time = 0


SIMPLE: convergence criteria
    field p	 tolerance 1e-05

Reading field p

Reading field U

Reading/calculating face flux field phi

Selecting incompressible transport model Newtonian
Selecting turbulence model type RAS
Selecting RAS turbulence model kEpsilon
RAS
{
    RASModel        kEpsilon;
    turbulence      on;
    printCoeffs     on;
    Cmu             0.09;
    C1              1.44;
    C2              1.92;
    C3              0;
    sigmak          1;
    sigmaEps        1.3;
}

No MRF models present

No finite volume options present

Starting time loop

--> FOAM Warning : 

    failed lookup of wall (objectRegistry simpleFoam_kE)
    available objects of type objectRegistry:
1(region0)


    From const Type& Foam::objectRegistry::lookupObject(const Foam::word&, bool) const [with Type = Foam::objectRegistry]
    in file db/objectRegistry/objectRegistryTemplates.C at line 628.
--> loading function object 'yPlus1'

Time = 1

GAMG:  Solving for Ux, Initial residual = 0.9999999815, Final residual = 0.0002232505141, No Iterations 2
GAMG:  Solving for Uy, Initial residual = 0.1022304623, Final residual = 5.4440918e-05, No Iterations 2
GAMG:  Solving for p, Initial residual = 1, Final residual = 0.002762777849, No Iterations 13
time step continuity errors : sum local = 0.0007965137726, global = 2.128135532e-05, cumulative = 2.128135532e-05
GAMG:  Solving for epsilon, Initial residual = 0.03080252575, Final residual = 9.446257208e-06, No Iterations 2
GAMG:  Solving for k, Initial residual = 0.9999999998, Final residual = 0.000302587104, No Iterations 2
ExecutionTime = 0.79 s  ClockTime = 1 s

Time = 2

GAMG:  Solving for Ux, Initial residual = 0.304167593, Final residual = 0.0002089789747, No Iterations 1
GAMG:  Solving for Uy, Initial residual = 0.2676231292, Final residual = 0.002167540123, No Iterations 1
GAMG:  Solving for p, Initial residual = 0.004666677277, Final residual = 1.123347007e-05, No Iterations 11
time step continuity errors : sum local = 0.0009307998129, global = 2.130870171e-05, cumulative = 4.259005702e-05
GAMG:  Solving for epsilon, Initial residual = 0.004720448525, Final residual = 6.795946865e-06, No Iterations 2
GAMG:  Solving for k, Initial residual = 0.3477275224, Final residual = 0.001616265821, No Iterations 1
ExecutionTime = 0.97 s  ClockTime = 1 s

Time = 3

GAMG:  Solving for Ux, Initial residual = 0.1945788096, Final residual = 0.0001457766078, No Iterations 1
GAMG:  Solving for Uy, Initial residual = 0.1595757847, Final residual = 0.0004838502663, No Iterations 1
GAMG:  Solving for p, Initial residual = 0.002747858755, Final residual = 1.281002202e-05, No Iterations 8
time step continuity errors : sum local = 0.00160316229, global = 5.915073722e-05, cumulative = 0.0001017407942
GAMG:  Solving for epsilon, Initial residual = 0.00811575514, Final residual = 3.855691041e-06, No Iterations 2
GAMG:  Solving for k, Initial residual = 0.2088976502, Final residual = 0.001414936402, No Iterations 1
ExecutionTime = 1.12 s  ClockTime = 1 s

Time = 4

GAMG:  Solving for Ux, Initial residual = 0.1327733835, Final residual = 0.000105834447, No Iterations 1
GAMG:  Solving for Uy, Initial residual = 0.1097089862, Final residual = 0.0002614595954, No Iterations 1
GAMG:  Solving for p, Initial residual = 0.003327852389, Final residual = 1.200023768e-05, No Iterations 9
time step continuity errors : sum local = 0.0015998596, global = -5.281575475e-05, cumulative = 4.892503949e-05
GAMG:  Solving for epsilon, Initial residual = 0.01193882159, Final residual = 3.692078455e-06, No Iterations 2
GAMG:  Solving for k, Initial residual = 0.1483443873, Final residual = 0.0009334004624, No Iterations 1
ExecutionTime = 1.29 s  ClockTime = 1 s

Time = 5

GAMG:  Solving for Ux, Initial residual = 0.08851119186, Final residual = 6.513069596e-05, No Iterations 1
GAMG:  Solving for Uy, Initial residual = 0.07280693247, Final residual = 0.0001504127207, No Iterations 1
GAMG:  Solving for p, Initial residual = 0.005456543325, Final residual = 9.396112934e-06, No Iterations 12
time step continuity errors : sum local = 0.001070956535, global = -3.203699291e-05, cumulative = 1.688804658e-05
GAMG:  Solving for epsilon, Initial residual = 0.0179150123, Final residual = 4.468071682e-06, No Iterations 2
GAMG:  Solving for k, Initial residual = 0.1146989957, Final residual = 0.0006625500489, No Iterations 1
ExecutionTime = 1.47 s  ClockTime = 2 s

Time = 6

GAMG:  Solving for Ux, Initial residual = 0.05249466451, Final residual = 4.408970141e-05, No Iterations 1
GAMG:  Solving for Uy, Initial residual = 0.04440116124, Final residual = 9.764617203e-05, No Iterations 1
GAMG:  Solving for p, Initial residual = 0.009280870648, Final residual = 3.345125786e-05, No Iterations 11
time step continuity errors : sum local = 0.002547818119, global = -5.829040653e-05, cumulative = -4.140235996e-05
GAMG:  Solving for epsilon, Initial residual = 0.01727611894, Final residual = 0.0001689544505, No Iterations 1
GAMG:  Solving for k, Initial residual = 0.08309190114, Final residual = 0.0004012407724, No Iterations 1
ExecutionTime = 1.64 s  ClockTime = 2 s

Time = 7

GAMG:  Solving for Ux, Initial residual = 0.02145301006, Final residual = 3.137807872e-05, No Iterations 1
GAMG:  Solving for Uy, Initial residual = 0.02063955793, Final residual = 5.81589167e-05, No Iterations 1
GAMG:  Solving for p, Initial residual = 0.02427085939, Final residual = 0.0001201340155, No Iterations 10
time step continuity errors : sum local = 0.003773666728, global = -8.724300268e-05, cumulative = -0.0001286453626
GAMG:  Solving for epsilon, Initial residual = 0.02083169517, Final residual = 0.0001383200917, No Iterations 1
GAMG:  Solving for k, Initial residual = 0.06562412216, Final residual = 0.0003532337718, No Iterations 1
ExecutionTime = 1.81 s  ClockTime = 2 s

Time = 8

GAMG:  Solving for Ux, Initial residual = 0.0139931751, Final residual = 4.303421806e-05, No Iterations 1
GAMG:  Solving for Uy, Initial residual = 0.01458379199, Final residual = 6.315603235e-05, No Iterations 1
GAMG:  Solving for p, Initial residual = 0.05357564218, Final residual = 0.000207345908, No Iterations 9
time step continuity errors : sum local = 0.002855409067, global = -0.0001064516587, cumulative = -0.0002350970213
GAMG:  Solving for epsilon, Initial residual = 0.0196253232, Final residual = 0.0001654515299, No Iterations 1
GAMG:  Solving for k, Initial residual = 0.05190839075, Final residual = 0.0002210929712, No Iterations 1
ExecutionTime = 1.97 s  ClockTime = 2 s

Time = 9

GAMG:  Solving for Ux, Initial residual = 0.0391678342, Final residual = 4.392207965e-05, No Iterations 1
GAMG:  Solving for Uy, Initial residual = 0.02807710661, Final residual = 9.752017775e-05, No Iterations 1
GAMG:  Solving for p, Initial residual = 0.01472210309, Final residual = 6.167303104e-05, No Iterations 8
time step continuity errors : sum local = 0.002751175477, global = -6.017933289e-05, cumulative = -0.0002952763542
GAMG:  Solving for epsilon, Initial residual = 0.01232457495, Final residual = 0.0001055999221, No Iterations 1
GAMG:  Solving for k, Initial residual = 0.0410566047, Final residual = 0.0001627498544, No Iterations 1
ExecutionTime = 2.12 s  ClockTime = 2 s

Time = 10

GAMG:  Solving for Ux, Initial residual = 0.05885470207, Final residual = 4.528826138e-05, No Iterations 1
GAMG:  Solving for Uy, Initial residual = 0.04271973577, Final residual = 0.0001222886944, No Iterations 1
GAMG:  Solving for p, Initial residual = 0.01061224725, Final residual = 2.544071119e-05, No Iterations 7
time step continuity errors : sum local = 0.001549181868, global = -2.055276211e-05, cumulative = -0.0003158291163
GAMG:  Solving for epsilon, Initial residual = 0.01037300486, Final residual = 7.34548416e-05, No Iterations 1
GAMG:  Solving for k, Initial residual = 0.03636497611, Final residual = 0.0001497316413, No Iterations 1
ExecutionTime = 2.27 s  ClockTime = 2 s

Time = 11

GAMG:  Solving for Ux, Initial residual = 0.06865825547, Final residual = 4.795033948e-05, No Iterations 1
GAMG:  Solving for Uy, Initial residual = 0.05197066913, Final residual = 0.0001767783313, No Iterations 1
GAMG:  Solving for p, Initial residual = 0.01086014923, Final residual = 5.372025368e-05, No Iterations 7
time step continuity errors : sum local = 0.003326087052, global = 5.217766354e-05, cumulative = -0.0002636514528
GAMG:  Solving for epsilon, Initial residual = 0.008433106677, Final residual = 4.58492464e-05, No Iterations 1
GAMG:  Solving for k, Initial residual = 0.0324138935, Final residual = 0.0001208586026, No Iterations 1
ExecutionTime = 2.42 s  ClockTime = 3 s

Time = 12

GAMG:  Solving for Ux, Initial residual = 0.063996545, Final residual = 4.727787141e-05, No Iterations 1
GAMG:  Solving for Uy, Initial residual = 0.04998048781, Final residual = 0.0001457040175, No Iterations 1
GAMG:  Solving for p, Initial residual = 0.01226584839, Final residual = 2.915440477e-05, No Iterations 9
time step continuity errors : sum local = 0.001497379531, global = 6.528865701e-05, cumulative = -0.0001983627957
GAMG:  Solving for epsilon, Initial residual = 0.006863984813, Final residual = 3.236511605e-05, No Iterations 1
GAMG:  Solving for k, Initial residual = 0.02906872045, Final residual = 0.0001173466905, No Iterations 1
ExecutionTime = 2.57 s  ClockTime = 3 s

Time = 13

GAMG:  Solving for Ux, Initial residual = 0.04523299291, Final residual = 3.762666474e-05, No Iterations 1
GAMG:  Solving for Uy, Initial residual = 0.03848937276, Final residual = 0.0001608892484, No Iterations 1
GAMG:  Solving for p, Initial residual = 0.01850076558, Final residual = 5.067541664e-05, No Iterations 9
time step continuity errors : sum local = 0.001658555735, global = 5.865375735e-05, cumulative = -0.0001397090384
GAMG:  Solving for epsilon, Initial residual = 0.00581476371, Final residual = 2.434308899e-05, No Iterations 1
GAMG:  Solving for k, Initial residual = 0.02586275426, Final residual = 9.663615235e-05, No Iterations 1
ExecutionTime = 2.73 s  ClockTime = 3 s

Time = 14

GAMG:  Solving for Ux, Initial residual = 0.01991402183, Final residual = 2.95550759e-05, No Iterations 1
GAMG:  Solving for Uy, Initial residual = 0.02784529352, Final residual = 0.0001096305328, No Iterations 1
GAMG:  Solving for p, Initial residual = 0.04692612388, Final residual = 0.0001306008529, No Iterations 9
time step continuity errors : sum local = 0.001649550831, global = 6.646489803e-05, cumulative = -7.324414037e-05
GAMG:  Solving for epsilon, Initial residual = 0.004937047435, Final residual = 2.112664965e-05, No Iterations 1
GAMG:  Solving for k, Initial residual = 0.02313735779, Final residual = 0.0001018148962, No Iterations 1
ExecutionTime = 2.89 s  ClockTime = 3 s

Time = 15

GAMG:  Solving for Ux, Initial residual = 0.01763320556, Final residual = 4.705121365e-05, No Iterations 1
GAMG:  Solving for Uy, Initial residual = 0.02891538598, Final residual = 0.0001308618588, No Iterations 1
GAMG:  Solving for p, Initial residual = 0.04750513418, Final residual = 0.0001074476944, No Iterations 9
time step continuity errors : sum local = 0.001044848735, global = 5.347329679e-05, cumulative = -1.977084358e-05
GAMG:  Solving for epsilon, Initial residual = 0.003817406437, Final residual = 1.756510902e-05, No Iterations 1
GAMG:  Solving for k, Initial residual = 0.01996984936, Final residual = 8.13678711e-05, No Iterations 1
ExecutionTime = 3.06 s  ClockTime = 3 s

Time = 16

GAMG:  Solving for Ux, Initial residual = 0.02775531733, Final residual = 2.265743558e-05, No Iterations 1
GAMG:  Solving for Uy, Initial residual = 0.02791466198, Final residual = 8.649856456e-05, No Iterations 1
GAMG:  Solving for p, Initial residual = 0.02003984565, Final residual = 8.165114467e-05, No Iterations 7
time step continuity errors : sum local = 0.001868060314, global = 8.513120698e-05, cumulative = 6.53603634e-05
GAMG:  Solving for epsilon, Initial residual = 0.003322971493, Final residual = 1.534045681e-05, No Iterations 1
GAMG:  Solving for k, Initial residual = 0.01726491296, Final residual = 7.649695086e-05, No Iterations 1
ExecutionTime = 3.19 s  ClockTime = 3 s

Time = 17

GAMG:  Solving for Ux, Initial residual = 0.03063670716, Final residual = 2.138961082e-05, No Iterations 1
GAMG:  Solving for Uy, Initial residual = 0.02838862816, Final residual = 8.507014395e-05, No Iterations 1
GAMG:  Solving for p, Initial residual = 0.01643734058, Final residual = 5.894813085e-05, No Iterations 6
time step continuity errors : sum local = 0.001695724618, global = -0.0001682740962, cumulative = -0.0001029137328
GAMG:  Solving for epsilon, Initial residual = 0.002947149127, Final residual = 1.368589557e-05, No Iterations 1
GAMG:  Solving for k, Initial residual = 0.01524936674, Final residual = 6.948718843e-05, No Iterations 1
ExecutionTime = 3.33 s  ClockTime = 4 s

Time = 18

GAMG:  Solving for Ux, Initial residual = 0.02753092121, Final residual = 1.898489004e-05, No Iterations 1
GAMG:  Solving for Uy, Initial residual = 0.0252864582, Final residual = 7.198295081e-05, No Iterations 1
GAMG:  Solving for p, Initial residual = 0.01777864584, Final residual = 6.132327807e-05, No Iterations 7
time step continuity errors : sum local = 0.001745082464, global = -2.332317861e-05, cumulative = -0.0001262369115
GAMG:  Solving for epsilon, Initial residual = 0.002666685252, Final residual = 1.275925438e-05, No Iterations 1
GAMG:  Solving for k, Initial residual = 0.01350517969, Final residual = 6.506474001e-05, No Iterations 1
ExecutionTime = 3.48 s  ClockTime = 4 s

Time = 19

GAMG:  Solving for Ux, Initial residual = 0.02098975473, Final residual = 1.599116144e-05, No Iterations 1
GAMG:  Solving for Uy, Initial residual = 0.01997124999, Final residual = 6.578681568e-05, No Iterations 1
GAMG:  Solving for p, Initial residual = 0.02030035833, Final residual = 8.157680628e-05, No Iterations 8
time step continuity errors : sum local = 0.00183082494, global = -3.308213549e-05, cumulative = -0.0001593190469
GAMG:  Solving for epsilon, Initial residual = 0.002430978472, Final residual = 1.194953026e-05, No Iterations 1
GAMG:  Solving for k, Initial residual = 0.01197094445, Final residual = 6.061028297e-05, No Iterations 1
ExecutionTime = 3.64 s  ClockTime = 4 s

Time = 20

GAMG:  Solving for Ux, Initial residual = 0.01293484784, Final residual = 1.296332627e-05, No Iterations 1
GAMG:  Solving for Uy, Initial residual = 0.01264355734, Final residual = 4.665179015e-05, No Iterations 1
GAMG:  Solving for p, Initial residual = 0.032532504, Final residual = 0.0001478988035, No Iterations 8
time step continuity errors : sum local = 0.002057430561, global = -3.948037996e-05, cumulative = -0.0001987994269
GAMG:  Solving for epsilon, Initial residual = 0.002281920879, Final residual = 1.159468861e-05, No Iterations 1
GAMG:  Solving for k, Initial residual = 0.01104517875, Final residual = 5.681299052e-05, No Iterations 1
ExecutionTime = 3.79 s  ClockTime = 4 s

Time = 21

GAMG:  Solving for Ux, Initial residual = 0.005341099416, Final residual = 1.126151998e-05, No Iterations 1
GAMG:  Solving for Uy, Initial residual = 0.007716475727, Final residual = 4.107425052e-05, No Iterations 1
GAMG:  Solving for p, Initial residual = 0.08977336449, Final residual = 0.0003867368959, No Iterations 8
time step continuity errors : sum local = 0.001752909966, global = -2.705985931e-05, cumulative = -0.0002258592862
GAMG:  Solving for epsilon, Initial residual = 0.002305491112, Final residual = 1.200384147e-05, No Iterations 1
GAMG:  Solving for k, Initial residual = 0.01039128247, Final residual = 5.452089227e-05, No Iterations 1
ExecutionTime = 3.94 s  ClockTime = 4 s

Time = 22

GAMG:  Solving for Ux, Initial residual = 0.009779571825, Final residual = 1.140730169e-05, No Iterations 1
GAMG:  Solving for Uy, Initial residual = 0.01010116724, Final residual = 3.613644521e-05, No Iterations 1
GAMG:  Solving for p, Initial residual = 0.0537652551, Final residual = 0.0001976610486, No Iterations 7
time step continuity errors : sum local = 0.001341311395, global = -3.933894892e-05, cumulative = -0.0002651982351
GAMG:  Solving for epsilon, Initial residual = 0.002412356907, Final residual = 1.24705675e-05, No Iterations 1
GAMG:  Solving for k, Initial residual = 0.01010233929, Final residual = 5.39155729e-05, No Iterations 1
ExecutionTime = 4.09 s  ClockTime = 4 s

Time = 23

GAMG:  Solving for Ux, Initial residual = 0.01407602696, Final residual = 1.250691042e-05, No Iterations 1
GAMG:  Solving for Uy, Initial residual = 0.01348902236, Final residual = 3.789242447e-05, No Iterations 1
GAMG:  Solving for p, Initial residual = 0.02644357961, Final residual = 5.530141971e-05, No Iterations 8
time step continuity errors : sum local = 0.0006629957106, global = -1.814829484e-05, cumulative = -0.00028334653
GAMG:  Solving for epsilon, Initial residual = 0.00248605763, Final residual = 1.239138964e-05, No Iterations 1
GAMG:  Solving for k, Initial residual = 0.01035517117, Final residual = 5.271759393e-05, No Iterations 1
ExecutionTime = 4.25 s  ClockTime = 4 s

Time = 24

GAMG:  Solving for Ux, Initial residual = 0.0161113568, Final residual = 1.289550886e-05, No Iterations 1
GAMG:  Solving for Uy, Initial residual = 0.01525490315, Final residual = 3.666006929e-05, No Iterations 1
GAMG:  Solving for p, Initial residual = 0.02129493763, Final residual = 8.681779798e-05, No Iterations 6
time step continuity errors : sum local = 0.00122160532, global = 0.0001005503515, cumulative = -0.0001827961784
GAMG:  Solving for epsilon, Initial residual = 0.002527553889, Final residual = 1.220185328e-05, No Iterations 1
GAMG:  Solving for k, Initial residual = 0.01059511844, Final residual = 5.090836733e-05, No Iterations 1
ExecutionTime = 4.38 s  ClockTime = 5 s

Time = 25

GAMG:  Solving for Ux, Initial residual = 0.0156084961, Final residual = 1.248257076e-05, No Iterations 1
GAMG:  Solving for Uy, Initial residual = 0.01493755385, Final residual = 3.489559931e-05, No Iterations 1
GAMG:  Solving for p, Initial residual = 0.02164001713, Final residual = 5.317374746e-05, No Iterations 7
time step continuity errors : sum local = 0.00070380517, global = 3.229430822e-05, cumulative = -0.0001505018702
GAMG:  Solving for epsilon, Initial residual = 0.002532407677, Final residual = 1.185801588e-05, No Iterations 1
GAMG:  Solving for k, Initial residual = 0.01072045985, Final residual = 4.87781728e-05, No Iterations 1
ExecutionTime = 4.52 s  ClockTime = 5 s

Time = 26

GAMG:  Solving for Ux, Initial residual = 0.01302276298, Final residual = 1.152281708e-05, No Iterations 1
GAMG:  Solving for Uy, Initial residual = 0.01276039331, Final residual = 3.133848635e-05, No Iterations 1
GAMG:  Solving for p, Initial residual = 0.02667757626, Final residual = 9.956415838e-05, No Iterations 7
time step continuity errors : sum local = 0.001017373294, global = 3.34132208e-05, cumulative = -0.0001170886494
GAMG:  Solving for epsilon, Initial residual = 0.002507717922, Final residual = 1.147323405e-05, No Iterations 1
GAMG:  Solving for k, Initial residual = 0.0107047937, Final residual = 4.663347876e-05, No Iterations 1
ExecutionTime = 4.67 s  ClockTime = 5 s

Time = 27

GAMG:  Solving for Ux, Initial residual = 0.009595415196, Final residual = 1.042394452e-05, No Iterations 1
GAMG:  Solving for Uy, Initial residual = 0.009936141482, Final residual = 2.917412963e-05, No Iterations 1
GAMG:  Solving for p, Initial residual = 0.04336440121, Final residual = 0.0002006161065, No Iterations 7
time step continuity errors : sum local = 0.001216243588, global = 3.833513296e-05, cumulative = -7.875351646e-05
GAMG:  Solving for epsilon, Initial residual = 0.002482243501, Final residual = 1.076089648e-05, No Iterations 1
GAMG:  Solving for k, Initial residual = 0.01067600507, Final residual = 4.430809276e-05, No Iterations 1
ExecutionTime = 4.82 s  ClockTime = 5 s

Time = 28

GAMG:  Solving for Ux, Initial residual = 0.006364114043, Final residual = 9.369985408e-06, No Iterations 1
GAMG:  Solving for Uy, Initial residual = 0.008260340539, Final residual = 2.67438023e-05, No Iterations 1
GAMG:  Solving for p, Initial residual = 0.1391378742, Final residual = 0.0005365907735, No Iterations 7
time step continuity errors : sum local = 0.0009683951942, global = 3.847251029e-05, cumulative = -4.028100617e-05
GAMG:  Solving for epsilon, Initial residual = 0.002432245495, Final residual = 9.949851193e-06, No Iterations 1
GAMG:  Solving for k, Initial residual = 0.01063049161, Final residual = 4.179096787e-05, No Iterations 1
ExecutionTime = 4.97 s  ClockTime = 5 s

Time = 29

GAMG:  Solving for Ux, Initial residual = 0.006674113165, Final residual = 8.89642124e-06, No Iterations 1
GAMG:  Solving for Uy, Initial residual = 0.008668279232, Final residual = 2.595763832e-05, No Iterations 1
GAMG:  Solving for p, Initial residual = 0.05008981618, Final residual = 0.0001479473932, No Iterations 7
time step continuity errors : sum local = 0.0006932445534, global = 4.029458389e-05, cumulative = 1.357772782e-08
GAMG:  Solving for epsilon, Initial residual = 0.002387654283, Final residual = 9.084504516e-06, No Iterations 1
GAMG:  Solving for k, Initial residual = 0.01054537617, Final residual = 3.914290329e-05, No Iterations 1
ExecutionTime = 5.12 s  ClockTime = 5 s

Time = 30

GAMG:  Solving for Ux, Initial residual = 0.007828519521, Final residual = 8.438520404e-06, No Iterations 1
GAMG:  Solving for Uy, Initial residual = 0.009440352577, Final residual = 2.565653573e-05, No Iterations 1
GAMG:  Solving for p, Initial residual = 0.03268993896, Final residual = 0.0001244093727, No Iterations 6
time step continuity errors : sum local = 0.0008566813515, global = 2.507841956e-05, cumulative = 2.509199729e-05
GAMG:  Solving for epsilon, Initial residual = 0.002322352494, Final residual = 8.147873878e-06, No Iterations 1
GAMG:  Solving for k, Initial residual = 0.0104070879, Final residual = 3.629098469e-05, No Iterations 1
ExecutionTime = 5.25 s  ClockTime = 5 s

Time = 31

GAMG:  Solving for Ux, Initial residual = 0.007964802574, Final residual = 7.781412451e-06, No Iterations 1
GAMG:  Solving for Uy, Initial residual = 0.009506965234, Final residual = 2.476648444e-05, No Iterations 1
GAMG:  Solving for p, Initial residual = 0.02807818989, Final residual = 0.0001013078326, No Iterations 6
time step continuity errors : sum local = 0.0007738315411, global = -4.06525533e-05, cumulative = -1.556055601e-05
GAMG:  Solving for epsilon, Initial residual = 0.002252051753, Final residual = 7.21462051e-06, No Iterations 1
GAMG:  Solving for k, Initial residual = 0.01021094482, Final residual = 3.351281368e-05, No Iterations 1
ExecutionTime = 5.4 s  ClockTime = 6 s

Time = 32

GAMG:  Solving for Ux, Initial residual = 0.007146018618, Final residual = 7.009979758e-06, No Iterations 1
GAMG:  Solving for Uy, Initial residual = 0.009048692159, Final residual = 2.362202551e-05, No Iterations 1
GAMG:  Solving for p, Initial residual = 0.02915307521, Final residual = 6.427253575e-05, No Iterations 7
time step continuity errors : sum local = 0.0004594573958, global = -1.626303424e-05, cumulative = -3.182359024e-05
GAMG:  Solving for epsilon, Initial residual = 0.002212131243, Final residual = 6.372377276e-06, No Iterations 1
GAMG:  Solving for k, Initial residual = 0.01001363139, Final residual = 3.095879423e-05, No Iterations 1
ExecutionTime = 5.56 s  ClockTime = 6 s

Time = 33

GAMG:  Solving for Ux, Initial residual = 0.005695843977, Final residual = 6.269970968e-06, No Iterations 1
GAMG:  Solving for Uy, Initial residual = 0.008268811559, Final residual = 2.246833279e-05, No Iterations 1
GAMG:  Solving for p, Initial residual = 0.03565224523, Final residual = 9.744795189e-05, No Iterations 7
time step continuity errors : sum local = 0.0005582911744, global = -1.004169496e-05, cumulative = -4.18652852e-05
GAMG:  Solving for epsilon, Initial residual = 0.002168244653, Final residual = 5.679158095e-06, No Iterations 1
GAMG:  Solving for k, Initial residual = 0.00980053895, Final residual = 2.882956146e-05, No Iterations 1
ExecutionTime = 5.72 s  ClockTime = 6 s

Time = 34

GAMG:  Solving for Ux, Initial residual = 0.004354147549, Final residual = 5.69553112e-06, No Iterations 1
GAMG:  Solving for Uy, Initial residual = 0.007601599294, Final residual = 2.153505563e-05, No Iterations 1
GAMG:  Solving for p, Initial residual = 0.05160571966, Final residual = 0.0001379853012, No Iterations 7
time step continuity errors : sum local = 0.0005323997751, global = -1.842456815e-05, cumulative = -6.028985336e-05
GAMG:  Solving for epsilon, Initial residual = 0.002129444093, Final residual = 5.187367914e-06, No Iterations 1
GAMG:  Solving for k, Initial residual = 0.009584132973, Final residual = 2.703053074e-05, No Iterations 1
ExecutionTime = 5.88 s  ClockTime = 6 s

Time = 35

GAMG:  Solving for Ux, Initial residual = 0.004858235197, Final residual = 5.454280678e-06, No Iterations 1
GAMG:  Solving for Uy, Initial residual = 0.007474791383, Final residual = 2.095927709e-05, No Iterations 1
GAMG:  Solving for p, Initial residual = 0.0948049161, Final residual = 0.0004292353074, No Iterations 6
time step continuity errors : sum local = 0.0008619601137, global = -4.498769054e-05, cumulative = -0.0001052775439
GAMG:  Solving for epsilon, Initial residual = 0.002110714282, Final residual = 5.083453356e-06, No Iterations 1
GAMG:  Solving for k, Initial residual = 0.009374615201, Final residual = 2.567582701e-05, No Iterations 1
ExecutionTime = 6.04 s  ClockTime = 6 s

Time = 36

GAMG:  Solving for Ux, Initial residual = 0.005682582992, Final residual = 5.439129462e-06, No Iterations 1
GAMG:  Solving for Uy, Initial residual = 0.008008555623, Final residual = 2.072086409e-05, No Iterations 1
GAMG:  Solving for p, Initial residual = 0.08527563582, Final residual = 0.0002331797468, No Iterations 7
time step continuity errors : sum local = 0.0004890960634, global = -3.527973035e-05, cumulative = -0.0001405572743
GAMG:  Solving for epsilon, Initial residual = 0.002096759445, Final residual = 5.198434413e-06, No Iterations 1
GAMG:  Solving for k, Initial residual = 0.009172625689, Final residual = 2.45654949e-05, No Iterations 1
ExecutionTime = 6.2 s  ClockTime = 6 s

Time = 37

GAMG:  Solving for Ux, Initial residual = 0.006161423797, Final residual = 5.465358043e-06, No Iterations 1
GAMG:  Solving for Uy, Initial residual = 0.008337868308, Final residual = 2.059365036e-05, No Iterations 1
GAMG:  Solving for p, Initial residual = 0.05772154739, Final residual = 0.0002484126943, No Iterations 5
time step continuity errors : sum local = 0.0007258282707, global = -8.869325883e-05, cumulative = -0.0002292505331
GAMG:  Solving for epsilon, Initial residual = 0.002084974386, Final residual = 5.331807264e-06, No Iterations 1
GAMG:  Solving for k, Initial residual = 0.008983693304, Final residual = 2.358723906e-05, No Iterations 1
ExecutionTime = 6.34 s  ClockTime = 7 s

Time = 38

GAMG:  Solving for Ux, Initial residual = 0.006226532448, Final residual = 5.448904872e-06, No Iterations 1
GAMG:  Solving for Uy, Initial residual = 0.008202425498, Final residual = 2.043018088e-05, No Iterations 1
GAMG:  Solving for p, Initial residual = 0.05184600855, Final residual = 0.0001447175037, No Iterations 6
time step continuity errors : sum local = 0.0004485869105, global = 1.225697135e-05, cumulative = -0.0002169935617
GAMG:  Solving for epsilon, Initial residual = 0.002078815462, Final residual = 5.474684093e-06, No Iterations 1
GAMG:  Solving for k, Initial residual = 0.008816824411, Final residual = 2.270542968e-05, No Iterations 1
ExecutionTime = 6.49 s  ClockTime = 7 s

Time = 39

GAMG:  Solving for Ux, Initial residual = 0.005960104169, Final residual = 5.365585031e-06, No Iterations 1
GAMG:  Solving for Uy, Initial residual = 0.007767200272, Final residual = 2.00621035e-05, No Iterations 1
GAMG:  Solving for p, Initial residual = 0.05538545569, Final residual = 0.000246900094, No Iterations 7
time step continuity errors : sum local = 0.000682602916, global = 9.776247828e-06, cumulative = -0.0002072173139
GAMG:  Solving for epsilon, Initial residual = 0.002076087423, Final residual = 5.559744835e-06, No Iterations 1
GAMG:  Solving for k, Initial residual = 0.008673327384, Final residual = 2.193721331e-05, No Iterations 1
ExecutionTime = 6.65 s  ClockTime = 7 s

Time = 40

GAMG:  Solving for Ux, Initial residual = 0.005463703258, Final residual = 5.235518942e-06, No Iterations 1
GAMG:  Solving for Uy, Initial residual = 0.007280120966, Final residual = 1.944120815e-05, No Iterations 1
GAMG:  Solving for p, Initial residual = 0.07129000476, Final residual = 0.0003449659703, No Iterations 6
time step continuity errors : sum local = 0.0007061285651, global = 1.164325848e-05, cumulative = -0.0001955740554
GAMG:  Solving for epsilon, Initial residual = 0.002073878151, Final residual = 5.583943361e-06, No Iterations 1
GAMG:  Solving for k, Initial residual = 0.008551526765, Final residual = 2.124239396e-05, No Iterations 1
ExecutionTime = 6.8 s  ClockTime = 7 s

Time = 41

GAMG:  Solving for Ux, Initial residual = 0.004890343349, Final residual = 5.09486359e-06, No Iterations 1
GAMG:  Solving for Uy, Initial residual = 0.006947286079, Final residual = 1.859936565e-05, No Iterations 1
GAMG:  Solving for p, Initial residual = 0.1074192766, Final residual = 0.0004198206884, No Iterations 6
time step continuity errors : sum local = 0.0005427669294, global = 1.986493352e-05, cumulative = -0.0001757091219
GAMG:  Solving for epsilon, Initial residual = 0.002069771442, Final residual = 5.561586414e-06, No Iterations 1
GAMG:  Solving for k, Initial residual = 0.008440099821, Final residual = 2.063714661e-05, No Iterations 1
ExecutionTime = 6.96 s  ClockTime = 7 s

Time = 42

GAMG:  Solving for Ux, Initial residual = 0.004368729231, Final residual = 4.968063114e-06, No Iterations 1
GAMG:  Solving for Uy, Initial residual = 0.006817383839, Final residual = 1.752819245e-05, No Iterations 1
GAMG:  Solving for p, Initial residual = 0.06254553351, Final residual = 0.000282004523, No Iterations 6
time step continuity errors : sum local = 0.000596312318, global = 1.305936824e-05, cumulative = -0.0001626497537
GAMG:  Solving for epsilon, Initial residual = 0.002060722662, Final residual = 5.496034339e-06, No Iterations 1
GAMG:  Solving for k, Initial residual = 0.008336041659, Final residual = 2.013329213e-05, No Iterations 1
ExecutionTime = 7.11 s  ClockTime = 7 s

Time = 43

GAMG:  Solving for Ux, Initial residual = 0.00401371039, Final residual = 4.850988748e-06, No Iterations 1
GAMG:  Solving for Uy, Initial residual = 0.0066524533, Final residual = 1.624783288e-05, No Iterations 1
GAMG:  Solving for p, Initial residual = 0.04577941473, Final residual = 0.0001288644732, No Iterations 6
time step continuity errors : sum local = 0.0003546448032, global = 1.796075712e-05, cumulative = -0.0001446889965
GAMG:  Solving for epsilon, Initial residual = 0.002040819496, Final residual = 5.383631786e-06, No Iterations 1
GAMG:  Solving for k, Initial residual = 0.008218452375, Final residual = 1.974229873e-05, No Iterations 1
ExecutionTime = 7.26 s  ClockTime = 7 s

Time = 44

GAMG:  Solving for Ux, Initial residual = 0.003904105301, Final residual = 4.724819878e-06, No Iterations 1
GAMG:  Solving for Uy, Initial residual = 0.006358575526, Final residual = 1.487438945e-05, No Iterations 1
GAMG:  Solving for p, Initial residual = 0.03839438798, Final residual = 0.0001449018343, No Iterations 5
time step continuity errors : sum local = 0.0004518660203, global = 3.300279178e-05, cumulative = -0.0001116862048
GAMG:  Solving for epsilon, Initial residual = 0.001994001702, Final residual = 5.219944827e-06, No Iterations 1
GAMG:  Solving for k, Initial residual = 0.008039133796, Final residual = 1.932086903e-05, No Iterations 1
ExecutionTime = 7.41 s  ClockTime = 8 s

Time = 45

GAMG:  Solving for Ux, Initial residual = 0.003793703817, Final residual = 4.593833343e-06, No Iterations 1
GAMG:  Solving for Uy, Initial residual = 0.005931011407, Final residual = 1.349892758e-05, No Iterations 1
GAMG:  Solving for p, Initial residual = 0.0355766872, Final residual = 0.0001072700209, No Iterations 6
time step continuity errors : sum local = 0.0003428082813, global = -1.321636465e-05, cumulative = -0.0001249025694
GAMG:  Solving for epsilon, Initial residual = 0.001934328635, Final residual = 5.009767452e-06, No Iterations 1
GAMG:  Solving for k, Initial residual = 0.007833326729, Final residual = 1.882726083e-05, No Iterations 1
ExecutionTime = 7.58 s  ClockTime = 8 s

Time = 46

GAMG:  Solving for Ux, Initial residual = 0.003689490614, Final residual = 4.474317587e-06, No Iterations 1
GAMG:  Solving for Uy, Initial residual = 0.005411019416, Final residual = 1.222897542e-05, No Iterations 1
GAMG:  Solving for p, Initial residual = 0.03532260772, Final residual = 0.0001170282819, No Iterations 6
time step continuity errors : sum local = 0.0003575232731, global = -1.229042966e-05, cumulative = -0.0001371929991
GAMG:  Solving for epsilon, Initial residual = 0.001863956057, Final residual = 4.765754407e-06, No Iterations 1
GAMG:  Solving for k, Initial residual = 0.007603307705, Final residual = 1.828776363e-05, No Iterations 1
ExecutionTime = 7.72 s  ClockTime = 8 s

Time = 47

GAMG:  Solving for Ux, Initial residual = 0.003732669196, Final residual = 4.412945326e-06, No Iterations 1
GAMG:  Solving for Uy, Initial residual = 0.00491922302, Final residual = 1.111549996e-05, No Iterations 1
GAMG:  Solving for p, Initial residual = 0.03724262496, Final residual = 0.0001436471645, No Iterations 6
time step continuity errors : sum local = 0.0003955875977, global = -3.247992229e-05, cumulative = -0.0001696729214
GAMG:  Solving for epsilon, Initial residual = 0.001783610702, Final residual = 4.495925747e-06, No Iterations 1
GAMG:  Solving for k, Initial residual = 0.007359823354, Final residual = 1.771200571e-05, No Iterations 1
ExecutionTime = 7.87 s  ClockTime = 8 s

Time = 48

GAMG:  Solving for Ux, Initial residual = 0.003854416161, Final residual = 4.39673247e-06, No Iterations 1
GAMG:  Solving for Uy, Initial residual = 0.004698657533, Final residual = 1.052096538e-05, No Iterations 1
GAMG:  Solving for p, Initial residual = 0.04079901813, Final residual = 0.000201312632, No Iterations 6
time step continuity errors : sum local = 0.0004817415236, global = -2.350785862e-05, cumulative = -0.00019318078
GAMG:  Solving for epsilon, Initial residual = 0.001696997847, Final residual = 4.207501966e-06, No Iterations 1
GAMG:  Solving for k, Initial residual = 0.007109008097, Final residual = 1.719110107e-05, No Iterations 1
ExecutionTime = 8.01 s  ClockTime = 8 s

Time = 49

GAMG:  Solving for Ux, Initial residual = 0.003978705196, Final residual = 4.417039071e-06, No Iterations 1
GAMG:  Solving for Uy, Initial residual = 0.004863776299, Final residual = 1.054097151e-05, No Iterations 1
GAMG:  Solving for p, Initial residual = 0.04552157702, Final residual = 0.0001332257138, No Iterations 6
time step continuity errors : sum local = 0.000272925807, global = -2.071306973e-05, cumulative = -0.0002138938497
GAMG:  Solving for epsilon, Initial residual = 0.001608523693, Final residual = 3.932787201e-06, No Iterations 1
GAMG:  Solving for k, Initial residual = 0.00686172192, Final residual = 1.665392465e-05, No Iterations 1
ExecutionTime = 8.15 s  ClockTime = 8 s

Time = 50

GAMG:  Solving for Ux, Initial residual = 0.004066047763, Final residual = 4.464380251e-06, No Iterations 1
GAMG:  Solving for Uy, Initial residual = 0.005033364451, Final residual = 1.070714489e-05, No Iterations 1
GAMG:  Solving for p, Initial residual = 0.05014100558, Final residual = 9.190060131e-05, No Iterations 6
time step continuity errors : sum local = 0.0001642944421, global = -2.139343312e-06, cumulative = -0.000216033193
GAMG:  Solving for epsilon, Initial residual = 0.00152087342, Final residual = 3.666366508e-06, No Iterations 1
GAMG:  Solving for k, Initial residual = 0.00662805844, Final residual = 1.611121052e-05, No Iterations 1
ExecutionTime = 8.29 s  ClockTime = 9 s

Time = 51

GAMG:  Solving for Ux, Initial residual = 0.004095265922, Final residual = 4.506425227e-06, No Iterations 1
GAMG:  Solving for Uy, Initial residual = 0.005140734592, Final residual = 1.08957598e-05, No Iterations 1
GAMG:  Solving for p, Initial residual = 0.05268994031, Final residual = 0.0001507444593, No Iterations 5
time step continuity errors : sum local = 0.0002475923145, global = -1.777342682e-06, cumulative = -0.0002178105357
GAMG:  Solving for epsilon, Initial residual = 0.001435487044, Final residual = 3.413405763e-06, No Iterations 1
GAMG:  Solving for k, Initial residual = 0.00640797019, Final residual = 1.559400482e-05, No Iterations 1
ExecutionTime = 8.43 s  ClockTime = 9 s

Time = 52

GAMG:  Solving for Ux, Initial residual = 0.004058035529, Final residual = 4.522007575e-06, No Iterations 1
GAMG:  Solving for Uy, Initial residual = 0.005176050437, Final residual = 1.10475159e-05, No Iterations 1
GAMG:  Solving for p, Initial residual = 0.05162932959, Final residual = 0.0001464458172, No Iterations 6
time step continuity errors : sum local = 0.0002380135637, global = 5.591388005e-06, cumulative = -0.0002122191477
GAMG:  Solving for epsilon, Initial residual = 0.001352838851, Final residual = 3.170366635e-06, No Iterations 1
GAMG:  Solving for k, Initial residual = 0.006199930383, Final residual = 1.508040561e-05, No Iterations 1
ExecutionTime = 8.57 s  ClockTime = 9 s

Time = 53

GAMG:  Solving for Ux, Initial residual = 0.003973764804, Final residual = 4.512612276e-06, No Iterations 1
GAMG:  Solving for Uy, Initial residual = 0.00513444762, Final residual = 1.107619655e-05, No Iterations 1
GAMG:  Solving for p, Initial residual = 0.04779753048, Final residual = 0.0001092971824, No Iterations 6
time step continuity errors : sum local = 0.0001863373704, global = 9.190240529e-06, cumulative = -0.0002030289072
GAMG:  Solving for epsilon, Initial residual = 0.001272572972, Final residual = 2.936136371e-06, No Iterations 1
GAMG:  Solving for k, Initial residual = 0.006001880077, Final residual = 1.456454168e-05, No Iterations 1
ExecutionTime = 8.71 s  ClockTime = 9 s

Time = 54

GAMG:  Solving for Ux, Initial residual = 0.003856243656, Final residual = 4.475749932e-06, No Iterations 1
GAMG:  Solving for Uy, Initial residual = 0.0050066388, Final residual = 1.095261622e-05, No Iterations 1
GAMG:  Solving for p, Initial residual = 0.04281870491, Final residual = 0.0001160008851, No Iterations 6
time step continuity errors : sum local = 0.0002150973635, global = 8.862994742e-06, cumulative = -0.0001941659124
GAMG:  Solving for epsilon, Initial residual = 0.00119568374, Final residual = 2.71274287e-06, No Iterations 1
GAMG:  Solving for k, Initial residual = 0.005813820599, Final residual = 1.405749575e-05, No Iterations 1
ExecutionTime = 8.85 s  ClockTime = 9 s

Time = 55

GAMG:  Solving for Ux, Initial residual = 0.0037318853, Final residual = 4.418348195e-06, No Iterations 1
GAMG:  Solving for Uy, Initial residual = 0.004805963475, Final residual = 1.068102684e-05, No Iterations 1
GAMG:  Solving for p, Initial residual = 0.03816499836, Final residual = 9.99686369e-05, No Iterations 6
time step continuity errors : sum local = 0.0002029343497, global = 6.922529082e-06, cumulative = -0.0001872433834
GAMG:  Solving for epsilon, Initial residual = 0.001122679525, Final residual = 2.502428796e-06, No Iterations 1
GAMG:  Solving for k, Initial residual = 0.005638013246, Final residual = 1.356751631e-05, No Iterations 1
ExecutionTime = 8.99 s  ClockTime = 9 s

Time = 56

GAMG:  Solving for Ux, Initial residual = 0.003615532156, Final residual = 4.34837058e-06, No Iterations 1
GAMG:  Solving for Uy, Initial residual = 0.004557110743, Final residual = 1.030076533e-05, No Iterations 1
GAMG:  Solving for p, Initial residual = 0.03444443993, Final residual = 7.688765211e-05, No Iterations 6
time step continuity errors : sum local = 0.0001686494397, global = 2.508857863e-06, cumulative = -0.0001847345255
GAMG:  Solving for epsilon, Initial residual = 0.001056829539, Final residual = 2.305141498e-06, No Iterations 1
GAMG:  Solving for k, Initial residual = 0.005474813992, Final residual = 1.308411092e-05, No Iterations 1
ExecutionTime = 9.13 s  ClockTime = 9 s

Time = 57

GAMG:  Solving for Ux, Initial residual = 0.003517719683, Final residual = 4.280813281e-06, No Iterations 1
GAMG:  Solving for Uy, Initial residual = 0.004288874574, Final residual = 9.878175954e-06, No Iterations 1
GAMG:  Solving for p, Initial residual = 0.03175641039, Final residual = 6.966215353e-05, No Iterations 6
time step continuity errors : sum local = 0.0001614180362, global = 9.356998196e-06, cumulative = -0.0001753775273
GAMG:  Solving for epsilon, Initial residual = 0.001007688706, Final residual = 2.12428628e-06, No Iterations 1
GAMG:  Solving for k, Initial residual = 0.005323351045, Final residual = 1.26067943e-05, No Iterations 1
ExecutionTime = 9.27 s  ClockTime = 9 s

Time = 58

GAMG:  Solving for Ux, Initial residual = 0.003443931572, Final residual = 4.21072825e-06, No Iterations 1
GAMG:  Solving for Uy, Initial residual = 0.004074707322, Final residual = 9.471116516e-06, No Iterations 1
GAMG:  Solving for p, Initial residual = 0.03002691587, Final residual = 0.0001193513017, No Iterations 5
time step continuity errors : sum local = 0.000284693785, global = 8.675350169e-06, cumulative = -0.0001667021771
GAMG:  Solving for epsilon, Initial residual = 0.0009752698555, Final residual = 1.951933126e-06, No Iterations 1
GAMG:  Solving for k, Initial residual = 0.005156256435, Final residual = 1.210133537e-05, No Iterations 1
ExecutionTime = 9.41 s  ClockTime = 10 s

Time = 59

GAMG:  Solving for Ux, Initial residual = 0.003395378144, Final residual = 4.13849209e-06, No Iterations 1
GAMG:  Solving for Uy, Initial residual = 0.003959530489, Final residual = 9.155551894e-06, No Iterations 1
GAMG:  Solving for p, Initial residual = 0.02898777943, Final residual = 0.0001061651995, No Iterations 5
time step continuity errors : sum local = 0.0002544247802, global = -1.807521687e-05, cumulative = -0.000184777394
GAMG:  Solving for epsilon, Initial residual = 0.0009397815163, Final residual = 1.793081987e-06, No Iterations 1
GAMG:  Solving for k, Initial residual = 0.004992421827, Final residual = 1.162293602e-05, No Iterations 1
ExecutionTime = 9.53 s  ClockTime = 10 s

Time = 60

GAMG:  Solving for Ux, Initial residual = 0.003363516566, Final residual = 4.073179684e-06, No Iterations 1
GAMG:  Solving for Uy, Initial residual = 0.003934409297, Final residual = 8.964119941e-06, No Iterations 1
GAMG:  Solving for p, Initial residual = 0.02837708692, Final residual = 0.000130997528, No Iterations 5
time step continuity errors : sum local = 0.0003105287014, global = -1.378688429e-05, cumulative = -0.0001985642783
GAMG:  Solving for epsilon, Initial residual = 0.0009034102175, Final residual = 1.656064113e-06, No Iterations 1
GAMG:  Solving for k, Initial residual = 0.004838944647, Final residual = 1.118108654e-05, No Iterations 1
ExecutionTime = 9.67 s  ClockTime = 10 s

Time = 61

GAMG:  Solving for Ux, Initial residual = 0.003345387933, Final residual = 4.011451766e-06, No Iterations 1
GAMG:  Solving for Uy, Initial residual = 0.003968037802, Final residual = 8.882973892e-06, No Iterations 1
GAMG:  Solving for p, Initial residual = 0.02815641909, Final residual = 7.296736578e-05, No Iterations 6
time step continuity errors : sum local = 0.0001689119202, global = -4.442923357e-06, cumulative = -0.0002030072016
GAMG:  Solving for epsilon, Initial residual = 0.0008665002831, Final residual = 1.550325098e-06, No Iterations 1
GAMG:  Solving for k, Initial residual = 0.004694937241, Final residual = 1.07729406e-05, No Iterations 1
ExecutionTime = 9.8 s  ClockTime = 10 s

Time = 62

GAMG:  Solving for Ux, Initial residual = 0.003335469497, Final residual = 3.952761138e-06, No Iterations 1
GAMG:  Solving for Uy, Initial residual = 0.004029895079, Final residual = 8.854407533e-06, No Iterations 1
GAMG:  Solving for p, Initial residual = 0.02813779998, Final residual = 8.395943723e-05, No Iterations 6
time step continuity errors : sum local = 0.0001884314286, global = -5.049410383e-06, cumulative = -0.000208056612
GAMG:  Solving for epsilon, Initial residual = 0.0008310081161, Final residual = 1.468834946e-06, No Iterations 1
GAMG:  Solving for k, Initial residual = 0.004561094882, Final residual = 1.038925616e-05, No Iterations 1
ExecutionTime = 9.94 s  ClockTime = 10 s

Time = 63

GAMG:  Solving for Ux, Initial residual = 0.003323729233, Final residual = 3.914647956e-06, No Iterations 1
GAMG:  Solving for Uy, Initial residual = 0.004087462606, Final residual = 8.856104091e-06, No Iterations 1
GAMG:  Solving for p, Initial residual = 0.028084503, Final residual = 9.787961142e-05, No Iterations 5
time step continuity errors : sum local = 0.0002132659344, global = -2.135210142e-05, cumulative = -0.0002294087134
GAMG:  Solving for epsilon, Initial residual = 0.0007978439664, Final residual = 1.41165046e-06, No Iterations 1
GAMG:  Solving for k, Initial residual = 0.004434719314, Final residual = 1.01349689e-05, No Iterations 1
ExecutionTime = 10.07 s  ClockTime = 10 s

Time = 64

GAMG:  Solving for Ux, Initial residual = 0.003302318775, Final residual = 3.896410283e-06, No Iterations 1
GAMG:  Solving for Uy, Initial residual = 0.004112823508, Final residual = 8.886579932e-06, No Iterations 1
GAMG:  Solving for p, Initial residual = 0.02778314447, Final residual = 0.0001015247669, No Iterations 5
time step continuity errors : sum local = 0.0002167561842, global = -1.355454615e-05, cumulative = -0.0002429632596
GAMG:  Solving for epsilon, Initial residual = 0.0007674161459, Final residual = 1.37732195e-06, No Iterations 1
GAMG:  Solving for k, Initial residual = 0.004315428357, Final residual = 9.945046817e-06, No Iterations 1
ExecutionTime = 10.19 s  ClockTime = 10 s

Time = 65

GAMG:  Solving for Ux, Initial residual = 0.00327141923, Final residual = 3.876338963e-06, No Iterations 1
GAMG:  Solving for Uy, Initial residual = 0.004102622461, Final residual = 8.87312349e-06, No Iterations 1
GAMG:  Solving for p, Initial residual = 0.02721501537, Final residual = 6.457000471e-05, No Iterations 5
time step continuity errors : sum local = 0.0001363574281, global = 8.203733304e-06, cumulative = -0.0002347595263
GAMG:  Solving for epsilon, Initial residual = 0.000738935273, Final residual = 1.354635353e-06, No Iterations 1
GAMG:  Solving for k, Initial residual = 0.00420199555, Final residual = 9.786195955e-06, No Iterations 1
ExecutionTime = 10.33 s  ClockTime = 11 s

Time = 66

GAMG:  Solving for Ux, Initial residual = 0.003232320918, Final residual = 3.855609581e-06, No Iterations 1
GAMG:  Solving for Uy, Initial residual = 0.004055411179, Final residual = 8.782502503e-06, No Iterations 1
GAMG:  Solving for p, Initial residual = 0.02637868445, Final residual = 8.987602372e-05, No Iterations 5
time step continuity errors : sum local = 0.0001895647622, global = 1.347168624e-05, cumulative = -0.00022128784
GAMG:  Solving for epsilon, Initial residual = 0.0007120630187, Final residual = 1.34212213e-06, No Iterations 1
GAMG:  Solving for k, Initial residual = 0.004093247424, Final residual = 9.650209738e-06, No Iterations 1
ExecutionTime = 10.46 s  ClockTime = 11 s

Time = 67

GAMG:  Solving for Ux, Initial residual = 0.003187244454, Final residual = 3.836503349e-06, No Iterations 1
GAMG:  Solving for Uy, Initial residual = 0.003962567788, Final residual = 8.617331709e-06, No Iterations 1
GAMG:  Solving for p, Initial residual = 0.0253178295, Final residual = 3.238898916e-05, No Iterations 6
time step continuity errors : sum local = 6.881032538e-05, global = 3.519394927e-06, cumulative = -0.0002177684451
GAMG:  Solving for epsilon, Initial residual = 0.0006866174155, Final residual = 1.334105046e-06, No Iterations 1
GAMG:  Solving for k, Initial residual = 0.003988964931, Final residual = 9.524439538e-06, No Iterations 1
ExecutionTime = 10.6 s  ClockTime = 11 s

Time = 68

GAMG:  Solving for Ux, Initial residual = 0.003136708423, Final residual = 3.816398671e-06, No Iterations 1
GAMG:  Solving for Uy, Initial residual = 0.003836515094, Final residual = 8.407024925e-06, No Iterations 1
GAMG:  Solving for p, Initial residual = 0.02412343931, Final residual = 3.332548858e-05, No Iterations 6
time step continuity errors : sum local = 7.187674405e-05, global = 1.75365276e-06, cumulative = -0.0002160147924
GAMG:  Solving for epsilon, Initial residual = 0.0006625682071, Final residual = 1.327977504e-06, No Iterations 1
GAMG:  Solving for k, Initial residual = 0.003890430716, Final residual = 9.40654823e-06, No Iterations 1
ExecutionTime = 10.73 s  ClockTime = 11 s

Time = 69

GAMG:  Solving for Ux, Initial residual = 0.003087842841, Final residual = 3.795027093e-06, No Iterations 1
GAMG:  Solving for Uy, Initial residual = 0.003697847893, Final residual = 8.186307347e-06, No Iterations 1
GAMG:  Solving for p, Initial residual = 0.02288208748, Final residual = 3.383555588e-05, No Iterations 6
time step continuity errors : sum local = 7.431540482e-05, global = 3.275230221e-06, cumulative = -0.0002127395621
GAMG:  Solving for epsilon, Initial residual = 0.0006404906369, Final residual = 1.323730422e-06, No Iterations 1
GAMG:  Solving for k, Initial residual = 0.003800018865, Final residual = 9.289166931e-06, No Iterations 1
ExecutionTime = 10.87 s  ClockTime = 11 s

Time = 70

GAMG:  Solving for Ux, Initial residual = 0.003040785204, Final residual = 3.771737769e-06, No Iterations 1
GAMG:  Solving for Uy, Initial residual = 0.003568917474, Final residual = 7.967844006e-06, No Iterations 1
GAMG:  Solving for p, Initial residual = 0.02168698788, Final residual = 9.494225625e-05, No Iterations 5
time step continuity errors : sum local = 0.000212158915, global = 8.840813309e-06, cumulative = -0.0002038987488
GAMG:  Solving for epsilon, Initial residual = 0.0006198799207, Final residual = 1.321549401e-06, No Iterations 1
GAMG:  Solving for k, Initial residual = 0.003712460796, Final residual = 9.174470443e-06, No Iterations 1
ExecutionTime = 10.99 s  ClockTime = 11 s

Time = 71

GAMG:  Solving for Ux, Initial residual = 0.002997164042, Final residual = 3.746158623e-06, No Iterations 1
GAMG:  Solving for Uy, Initial residual = 0.003471827747, Final residual = 7.779345947e-06, No Iterations 1
GAMG:  Solving for p, Initial residual = 0.02061857921, Final residual = 6.125702318e-05, No Iterations 5
time step continuity errors : sum local = 0.000138678908, global = 5.810180962e-06, cumulative = -0.0001980885679
GAMG:  Solving for epsilon, Initial residual = 0.0006002391183, Final residual = 1.320363931e-06, No Iterations 1
GAMG:  Solving for k, Initial residual = 0.003623763654, Final residual = 9.059805841e-06, No Iterations 1
ExecutionTime = 11.13 s  ClockTime = 11 s

Time = 72

GAMG:  Solving for Ux, Initial residual = 0.002955925713, Final residual = 3.720396081e-06, No Iterations 1
GAMG:  Solving for Uy, Initial residual = 0.003411376201, Final residual = 7.642957352e-06, No Iterations 1
GAMG:  Solving for p, Initial residual = 0.01969515568, Final residual = 5.680063399e-05, No Iterations 5
time step continuity errors : sum local = 0.0001297059133, global = 8.560320583e-06, cumulative = -0.0001895282473
GAMG:  Solving for epsilon, Initial residual = 0.0005820856826, Final residual = 1.318868555e-06, No Iterations 1
GAMG:  Solving for k, Initial residual = 0.003538836743, Final residual = 8.952487727e-06, No Iterations 1
ExecutionTime = 11.26 s  ClockTime = 11 s

Time = 73

GAMG:  Solving for Ux, Initial residual = 0.002916744881, Final residual = 3.695234741e-06, No Iterations 1
GAMG:  Solving for Uy, Initial residual = 0.003386440382, Final residual = 7.544949032e-06, No Iterations 1
GAMG:  Solving for p, Initial residual = 0.01893345574, Final residual = 4.900475859e-05, No Iterations 5
time step continuity errors : sum local = 0.0001123279314, global = 3.323586969e-07, cumulative = -0.0001891958886
GAMG:  Solving for epsilon, Initial residual = 0.0005648423164, Final residual = 1.318345807e-06, No Iterations 1
GAMG:  Solving for k, Initial residual = 0.003456822103, Final residual = 8.851886587e-06, No Iterations 1
ExecutionTime = 11.39 s  ClockTime = 12 s

Time = 74

GAMG:  Solving for Ux, Initial residual = 0.002879337727, Final residual = 3.67204793e-06, No Iterations 1
GAMG:  Solving for Uy, Initial residual = 0.003388053216, Final residual = 7.470772904e-06, No Iterations 1
GAMG:  Solving for p, Initial residual = 0.0182659694, Final residual = 3.807567219e-05, No Iterations 5
time step continuity errors : sum local = 8.729785427e-05, global = -6.892755532e-06, cumulative = -0.0001960886441
GAMG:  Solving for epsilon, Initial residual = 0.0005482116438, Final residual = 1.316876476e-06, No Iterations 1
GAMG:  Solving for k, Initial residual = 0.003376515364, Final residual = 8.750878967e-06, No Iterations 1
ExecutionTime = 11.53 s  ClockTime = 12 s

Time = 75

GAMG:  Solving for Ux, Initial residual = 0.002843008385, Final residual = 3.650444903e-06, No Iterations 1
GAMG:  Solving for Uy, Initial residual = 0.003403215374, Final residual = 7.406429052e-06, No Iterations 1
GAMG:  Solving for p, Initial residual = 0.01767073585, Final residual = 3.856387511e-05, No Iterations 5
time step continuity errors : sum local = 8.826921202e-05, global = -8.738899501e-06, cumulative = -0.0002048275436
GAMG:  Solving for epsilon, Initial residual = 0.0005322501818, Final residual = 1.313791158e-06, No Iterations 1
GAMG:  Solving for k, Initial residual = 0.003298048576, Final residual = 8.648745253e-06, No Iterations 1
ExecutionTime = 11.66 s  ClockTime = 12 s

Time = 76

GAMG:  Solving for Ux, Initial residual = 0.002807084911, Final residual = 3.627614137e-06, No Iterations 1
GAMG:  Solving for Uy, Initial residual = 0.003408198938, Final residual = 7.309689539e-06, No Iterations 1
GAMG:  Solving for p, Initial residual = 0.01712265783, Final residual = 3.964685684e-05, No Iterations 5
time step continuity errors : sum local = 9.05117532e-05, global = -8.7983353e-06, cumulative = -0.0002136258789
GAMG:  Solving for epsilon, Initial residual = 0.0005173573304, Final residual = 1.308384102e-06, No Iterations 1
GAMG:  Solving for k, Initial residual = 0.00322157223, Final residual = 8.544953949e-06, No Iterations 1
ExecutionTime = 11.8 s  ClockTime = 12 s

Time = 77

GAMG:  Solving for Ux, Initial residual = 0.00277122036, Final residual = 3.602068487e-06, No Iterations 1
GAMG:  Solving for Uy, Initial residual = 0.003390441502, Final residual = 7.16964581e-06, No Iterations 1
GAMG:  Solving for p, Initial residual = 0.01660136575, Final residual = 4.436260728e-05, No Iterations 5
time step continuity errors : sum local = 0.0001009999181, global = -6.17388851e-06, cumulative = -0.0002197997674
GAMG:  Solving for epsilon, Initial residual = 0.0005038127936, Final residual = 1.300245945e-06, No Iterations 1
GAMG:  Solving for k, Initial residual = 0.003148091868, Final residual = 8.438757792e-06, No Iterations 1
ExecutionTime = 11.94 s  ClockTime = 12 s

Time = 78

GAMG:  Solving for Ux, Initial residual = 0.002736216168, Final residual = 3.57140541e-06, No Iterations 1
GAMG:  Solving for Uy, Initial residual = 0.003348972144, Final residual = 6.990718983e-06, No Iterations 1
GAMG:  Solving for p, Initial residual = 0.01603811874, Final residual = 4.066765962e-05, No Iterations 5
time step continuity errors : sum local = 9.237012346e-05, global = -2.24029352e-06, cumulative = -0.0002220400609
GAMG:  Solving for epsilon, Initial residual = 0.0004916680417, Final residual = 1.290173244e-06, No Iterations 1
GAMG:  Solving for k, Initial residual = 0.003078307796, Final residual = 8.356541834e-06, No Iterations 1
ExecutionTime = 12.08 s  ClockTime = 12 s

Time = 79

GAMG:  Solving for Ux, Initial residual = 0.002702246572, Final residual = 3.535955139e-06, No Iterations 1
GAMG:  Solving for Uy, Initial residual = 0.003285559554, Final residual = 6.790512997e-06, No Iterations 1
GAMG:  Solving for p, Initial residual = 0.01543354526, Final residual = 3.134095162e-05, No Iterations 5
time step continuity errors : sum local = 7.10796003e-05, global = 5.491874142e-06, cumulative = -0.0002165481868
GAMG:  Solving for epsilon, Initial residual = 0.0004801144649, Final residual = 1.280952225e-06, No Iterations 1
GAMG:  Solving for k, Initial residual = 0.00300992901, Final residual = 8.266738208e-06, No Iterations 1
ExecutionTime = 12.21 s  ClockTime = 12 s

Time = 80

GAMG:  Solving for Ux, Initial residual = 0.002668319579, Final residual = 3.501868502e-06, No Iterations 1
GAMG:  Solving for Uy, Initial residual = 0.003207142034, Final residual = 6.594674978e-06, No Iterations 1
GAMG:  Solving for p, Initial residual = 0.01480714715, Final residual = 3.164238435e-05, No Iterations 5
time step continuity errors : sum local = 7.174365435e-05, global = 7.265789088e-06, cumulative = -0.0002092823977
GAMG:  Solving for epsilon, Initial residual = 0.0004689459431, Final residual = 1.267796805e-06, No Iterations 1
GAMG:  Solving for k, Initial residual = 0.002942666649, Final residual = 8.161681415e-06, No Iterations 1
ExecutionTime = 12.35 s  ClockTime = 13 s

Time = 81

GAMG:  Solving for Ux, Initial residual = 0.002633237903, Final residual = 3.468864716e-06, No Iterations 1
GAMG:  Solving for Uy, Initial residual = 0.003124489254, Final residual = 6.408459301e-06, No Iterations 1
GAMG:  Solving for p, Initial residual = 0.01416183166, Final residual = 3.65083768e-05, No Iterations 5
time step continuity errors : sum local = 8.289421485e-05, global = 6.382622583e-06, cumulative = -0.0002028997751
GAMG:  Solving for epsilon, Initial residual = 0.0004570857606, Final residual = 1.250478678e-06, No Iterations 1
GAMG:  Solving for k, Initial residual = 0.00287634543, Final residual = 8.038413462e-06, No Iterations 1
ExecutionTime = 12.47 s  ClockTime = 13 s

Time = 82

GAMG:  Solving for Ux, Initial residual = 0.002597069299, Final residual = 3.433444372e-06, No Iterations 1
GAMG:  Solving for Uy, Initial residual = 0.003046205129, Final residual = 6.236444559e-06, No Iterations 1
GAMG:  Solving for p, Initial residual = 0.01350352173, Final residual = 4.033479981e-05, No Iterations 5
time step continuity errors : sum local = 9.187195732e-05, global = 6.358158851e-06, cumulative = -0.0001965416163
GAMG:  Solving for epsilon, Initial residual = 0.0004466693671, Final residual = 1.229704118e-06, No Iterations 1
GAMG:  Solving for k, Initial residual = 0.002808947322, Final residual = 7.896835343e-06, No Iterations 1
ExecutionTime = 12.61 s  ClockTime = 13 s

Time = 83

GAMG:  Solving for Ux, Initial residual = 0.002561890117, Final residual = 3.395058407e-06, No Iterations 1
GAMG:  Solving for Uy, Initial residual = 0.002979416217, Final residual = 6.085434805e-06, No Iterations 1
GAMG:  Solving for p, Initial residual = 0.01286467374, Final residual = 4.149974386e-05, No Iterations 5
time step continuity errors : sum local = 9.493554368e-05, global = 5.781413432e-06, cumulative = -0.0001907602029
GAMG:  Solving for epsilon, Initial residual = 0.0004370044447, Final residual = 1.206491484e-06, No Iterations 1
GAMG:  Solving for k, Initial residual = 0.002742299158, Final residual = 7.746205236e-06, No Iterations 1
ExecutionTime = 12.74 s  ClockTime = 13 s

Time = 84

GAMG:  Solving for Ux, Initial residual = 0.002525903566, Final residual = 3.354117451e-06, No Iterations 1
GAMG:  Solving for Uy, Initial residual = 0.002933903767, Final residual = 5.962828215e-06, No Iterations 1
GAMG:  Solving for p, Initial residual = 0.01225177778, Final residual = 3.920228357e-05, No Iterations 5
time step continuity errors : sum local = 9.011444335e-05, global = 4.763101954e-06, cumulative = -0.0001859971009
GAMG:  Solving for epsilon, Initial residual = 0.0004273987889, Final residual = 1.181552243e-06, No Iterations 1
GAMG:  Solving for k, Initial residual = 0.002676666026, Final residual = 7.588169343e-06, No Iterations 1
ExecutionTime = 12.88 s  ClockTime = 13 s

Time = 85

GAMG:  Solving for Ux, Initial residual = 0.002489678592, Final residual = 3.310343071e-06, No Iterations 1
GAMG:  Solving for Uy, Initial residual = 0.002902362899, Final residual = 5.85668203e-06, No Iterations 1
GAMG:  Solving for p, Initial residual = 0.01168699162, Final residual = 3.539738026e-05, No Iterations 5
time step continuity errors : sum local = 8.175242541e-05, global = 3.795529578e-06, cumulative = -0.0001822015713
GAMG:  Solving for epsilon, Initial residual = 0.0004177495273, Final residual = 1.154684045e-06, No Iterations 1
GAMG:  Solving for k, Initial residual = 0.002612555231, Final residual = 7.425132097e-06, No Iterations 1
ExecutionTime = 13 s  ClockTime = 13 s

Time = 86

GAMG:  Solving for Ux, Initial residual = 0.002453803113, Final residual = 3.263334391e-06, No Iterations 1
GAMG:  Solving for Uy, Initial residual = 0.002874158463, Final residual = 5.754089064e-06, No Iterations 1
GAMG:  Solving for p, Initial residual = 0.01117676587, Final residual = 3.103835231e-05, No Iterations 5
time step continuity errors : sum local = 7.198007816e-05, global = 3.75534874e-06, cumulative = -0.0001784462226
GAMG:  Solving for epsilon, Initial residual = 0.0004080297008, Final residual = 1.126212768e-06, No Iterations 1
GAMG:  Solving for k, Initial residual = 0.002549898067, Final residual = 7.257103208e-06, No Iterations 1
ExecutionTime = 13.14 s  ClockTime = 13 s

Time = 87

GAMG:  Solving for Ux, Initial residual = 0.002418717208, Final residual = 3.213009854e-06, No Iterations 1
GAMG:  Solving for Uy, Initial residual = 0.002840704298, Final residual = 5.646728528e-06, No Iterations 1
GAMG:  Solving for p, Initial residual = 0.01070587166, Final residual = 2.723299014e-05, No Iterations 5
time step continuity errors : sum local = 6.335477365e-05, global = 4.363413352e-06, cumulative = -0.0001740828092
GAMG:  Solving for epsilon, Initial residual = 0.0003982976287, Final residual = 1.096350836e-06, No Iterations 1
GAMG:  Solving for k, Initial residual = 0.002488737135, Final residual = 7.086735311e-06, No Iterations 1
ExecutionTime = 13.27 s  ClockTime = 13 s

Time = 88

GAMG:  Solving for Ux, Initial residual = 0.002384882433, Final residual = 3.160426921e-06, No Iterations 1
GAMG:  Solving for Uy, Initial residual = 0.002797974633, Final residual = 5.529062964e-06, No Iterations 1
GAMG:  Solving for p, Initial residual = 0.01028393084, Final residual = 2.370683851e-05, No Iterations 5
time step continuity errors : sum local = 5.526599167e-05, global = 4.14588103e-06, cumulative = -0.0001699369282
GAMG:  Solving for epsilon, Initial residual = 0.0003886219848, Final residual = 1.065595706e-06, No Iterations 1
GAMG:  Solving for k, Initial residual = 0.002429026428, Final residual = 6.917402661e-06, No Iterations 1
ExecutionTime = 13.41 s  ClockTime = 14 s

Time = 89

GAMG:  Solving for Ux, Initial residual = 0.002352524723, Final residual = 3.107221898e-06, No Iterations 1
GAMG:  Solving for Uy, Initial residual = 0.002745322212, Final residual = 5.404108608e-06, No Iterations 1
GAMG:  Solving for p, Initial residual = 0.009914477075, Final residual = 2.021039377e-05, No Iterations 5
time step continuity errors : sum local = 4.716612758e-05, global = 3.394348439e-06, cumulative = -0.0001665425798
GAMG:  Solving for epsilon, Initial residual = 0.0003790750743, Final residual = 1.034360761e-06, No Iterations 1
GAMG:  Solving for k, Initial residual = 0.002370701571, Final residual = 6.749322004e-06, No Iterations 1
ExecutionTime = 13.55 s  ClockTime = 14 s

Time = 90

GAMG:  Solving for Ux, Initial residual = 0.002321371765, Final residual = 3.055217655e-06, No Iterations 1
GAMG:  Solving for Uy, Initial residual = 0.002683816633, Final residual = 5.281243363e-06, No Iterations 1
GAMG:  Solving for p, Initial residual = 0.009559952592, Final residual = 1.783795239e-05, No Iterations 5
time step continuity errors : sum local = 4.164732201e-05, global = 3.088061101e-06, cumulative = -0.0001634545187
GAMG:  Solving for epsilon, Initial residual = 0.0003696464357, Final residual = 1.002891497e-06, No Iterations 1
GAMG:  Solving for k, Initial residual = 0.002313815054, Final residual = 6.583057969e-06, No Iterations 1
ExecutionTime = 13.67 s  ClockTime = 14 s

Time = 91

GAMG:  Solving for Ux, Initial residual = 0.002290993035, Final residual = 3.00449306e-06, No Iterations 1
GAMG:  Solving for Uy, Initial residual = 0.00261770602, Final residual = 5.161029466e-06, No Iterations 1
GAMG:  Solving for p, Initial residual = 0.009236590115, Final residual = 1.72094792e-05, No Iterations 5
time step continuity errors : sum local = 4.018544469e-05, global = 3.434737747e-06, cumulative = -0.0001600197809
GAMG:  Solving for epsilon, Initial residual = 0.0003603921071, Final residual = 9.718520291e-07, No Iterations 1
GAMG:  Solving for k, Initial residual = 0.002258530613, Final residual = 6.420004795e-06, No Iterations 1
ExecutionTime = 13.81 s  ClockTime = 14 s

Time = 92

GAMG:  Solving for Ux, Initial residual = 0.002260970805, Final residual = 2.955747776e-06, No Iterations 1
GAMG:  Solving for Uy, Initial residual = 0.002549812642, Final residual = 5.040366826e-06, No Iterations 1
GAMG:  Solving for p, Initial residual = 0.008944568428, Final residual = 1.779667202e-05, No Iterations 5
time step continuity errors : sum local = 4.156295129e-05, global = 3.822203278e-06, cumulative = -0.0001561975776
GAMG:  Solving for epsilon, Initial residual = 0.0003512199581, Final residual = 9.413545134e-07, No Iterations 1
GAMG:  Solving for k, Initial residual = 0.002203984983, Final residual = 6.26043046e-06, No Iterations 1
ExecutionTime = 13.94 s  ClockTime = 14 s

Time = 93

GAMG:  Solving for Ux, Initial residual = 0.002231023517, Final residual = 2.909113306e-06, No Iterations 1
GAMG:  Solving for Uy, Initial residual = 0.002483521797, Final residual = 4.92501109e-06, No Iterations 1
GAMG:  Solving for p, Initial residual = 0.008669038012, Final residual = 2.027829208e-05, No Iterations 5
time step continuity errors : sum local = 4.737627403e-05, global = 3.485960408e-06, cumulative = -0.0001527116172
GAMG:  Solving for epsilon, Initial residual = 0.0003421470968, Final residual = 9.11595852e-07, No Iterations 1
GAMG:  Solving for k, Initial residual = 0.002150772914, Final residual = 6.111232369e-06, No Iterations 1
ExecutionTime = 14.07 s  ClockTime = 14 s

Time = 94

GAMG:  Solving for Ux, Initial residual = 0.002200909462, Final residual = 2.864395122e-06, No Iterations 1
GAMG:  Solving for Uy, Initial residual = 0.002422744791, Final residual = 4.816484007e-06, No Iterations 1
GAMG:  Solving for p, Initial residual = 0.008386052056, Final residual = 2.150116224e-05, No Iterations 5
time step continuity errors : sum local = 5.027093202e-05, global = 2.881791165e-06, cumulative = -0.0001498298261
GAMG:  Solving for epsilon, Initial residual = 0.0003332338157, Final residual = 8.835384758e-07, No Iterations 1
GAMG:  Solving for k, Initial residual = 0.002099244068, Final residual = 5.971762046e-06, No Iterations 1
ExecutionTime = 14.2 s  ClockTime = 14 s

Time = 95

GAMG:  Solving for Ux, Initial residual = 0.002170700703, Final residual = 2.82120451e-06, No Iterations 1
GAMG:  Solving for Uy, Initial residual = 0.00236897606, Final residual = 4.717272265e-06, No Iterations 1
GAMG:  Solving for p, Initial residual = 0.008131208262, Final residual = 2.177672366e-05, No Iterations 5
time step continuity errors : sum local = 5.097343304e-05, global = 2.69280537e-06, cumulative = -0.0001471370207
GAMG:  Solving for epsilon, Initial residual = 0.0003245095163, Final residual = 8.576663102e-07, No Iterations 1
GAMG:  Solving for k, Initial residual = 0.002049452988, Final residual = 5.844805227e-06, No Iterations 1
ExecutionTime = 14.34 s  ClockTime = 15 s

Time = 96

GAMG:  Solving for Ux, Initial residual = 0.002140501396, Final residual = 2.779236053e-06, No Iterations 1
GAMG:  Solving for Uy, Initial residual = 0.002323535639, Final residual = 4.622265444e-06, No Iterations 1
GAMG:  Solving for p, Initial residual = 0.007916813602, Final residual = 2.218295662e-05, No Iterations 5
time step continuity errors : sum local = 5.199951031e-05, global = 2.640854325e-06, cumulative = -0.0001444961664
GAMG:  Solving for epsilon, Initial residual = 0.0003160097823, Final residual = 8.34502521e-07, No Iterations 1
GAMG:  Solving for k, Initial residual = 0.002001407507, Final residual = 5.730263584e-06, No Iterations 1
ExecutionTime = 14.47 s  ClockTime = 15 s

Time = 97

GAMG:  Solving for Ux, Initial residual = 0.002111160949, Final residual = 2.738247285e-06, No Iterations 1
GAMG:  Solving for Uy, Initial residual = 0.002283291822, Final residual = 4.528059813e-06, No Iterations 1
GAMG:  Solving for p, Initial residual = 0.007713106507, Final residual = 2.223728487e-05, No Iterations 5
time step continuity errors : sum local = 5.221164804e-05, global = 2.541114643e-06, cumulative = -0.0001419550517
GAMG:  Solving for epsilon, Initial residual = 0.0003077090627, Final residual = 8.134123094e-07, No Iterations 1
GAMG:  Solving for k, Initial residual = 0.001955065662, Final residual = 5.618083787e-06, No Iterations 1
ExecutionTime = 14.61 s  ClockTime = 15 s

Time = 98

GAMG:  Solving for Ux, Initial residual = 0.002082103768, Final residual = 2.698209816e-06, No Iterations 1
GAMG:  Solving for Uy, Initial residual = 0.002244863588, Final residual = 4.436872916e-06, No Iterations 1
GAMG:  Solving for p, Initial residual = 0.007530550967, Final residual = 2.182819525e-05, No Iterations 5
time step continuity errors : sum local = 5.133628217e-05, global = 2.395862499e-06, cumulative = -0.0001395591892
GAMG:  Solving for epsilon, Initial residual = 0.0002996439603, Final residual = 7.936112875e-07, No Iterations 1
GAMG:  Solving for k, Initial residual = 0.001909905271, Final residual = 5.506171342e-06, No Iterations 1
ExecutionTime = 14.74 s  ClockTime = 15 s

Time = 99

GAMG:  Solving for Ux, Initial residual = 0.002053094449, Final residual = 2.660935838e-06, No Iterations 1
GAMG:  Solving for Uy, Initial residual = 0.002206740067, Final residual = 4.346637099e-06, No Iterations 1
GAMG:  Solving for p, Initial residual = 0.007363188553, Final residual = 2.117552871e-05, No Iterations 5
time step continuity errors : sum local = 4.987988261e-05, global = 2.243129687e-06, cumulative = -0.0001373160595
GAMG:  Solving for epsilon, Initial residual = 0.0002917994875, Final residual = 7.747079871e-07, No Iterations 1
GAMG:  Solving for k, Initial residual = 0.00186607481, Final residual = 5.395735013e-06, No Iterations 1
ExecutionTime = 14.87 s  ClockTime = 15 s

Time = 100

GAMG:  Solving for Ux, Initial residual = 0.00202453207, Final residual = 2.624047758e-06, No Iterations 1
GAMG:  Solving for Uy, Initial residual = 0.002168018913, Final residual = 4.261609723e-06, No Iterations 1
GAMG:  Solving for p, Initial residual = 0.007209502278, Final residual = 2.053412929e-05, No Iterations 5
time step continuity errors : sum local = 4.843759623e-05, global = 2.105326814e-06, cumulative = -0.0001352107327
GAMG:  Solving for epsilon, Initial residual = 0.0002841930567, Final residual = 7.565252914e-07, No Iterations 1
GAMG:  Solving for k, Initial residual = 0.001823564526, Final residual = 5.289471692e-06, No Iterations 1
ExecutionTime = 15.01 s  ClockTime = 15 s

Time = 101

GAMG:  Solving for Ux, Initial residual = 0.001996271761, Final residual = 2.587185341e-06, No Iterations 1
GAMG:  Solving for Uy, Initial residual = 0.002128758574, Final residual = 4.183100888e-06, No Iterations 1
GAMG:  Solving for p, Initial residual = 0.00706288998, Final residual = 1.992821051e-05, No Iterations 5
time step continuity errors : sum local = 4.706727781e-05, global = 1.991355858e-06, cumulative = -0.0001332193769
GAMG:  Solving for epsilon, Initial residual = 0.0002768507382, Final residual = 7.394530935e-07, No Iterations 1
GAMG:  Solving for k, Initial residual = 0.001782221068, Final residual = 5.185529008e-06, No Iterations 1
ExecutionTime = 15.14 s  ClockTime = 15 s

Time = 102

GAMG:  Solving for Ux, Initial residual = 0.001968209403, Final residual = 2.550123567e-06, No Iterations 1
GAMG:  Solving for Uy, Initial residual = 0.002089888808, Final residual = 4.10434417e-06, No Iterations 1
GAMG:  Solving for p, Initial residual = 0.006914187241, Final residual = 1.924041477e-05, No Iterations 5
time step continuity errors : sum local = 4.549050181e-05, global = 1.915939637e-06, cumulative = -0.0001313034372
GAMG:  Solving for epsilon, Initial residual = 0.000269756072, Final residual = 7.237011185e-07, No Iterations 1
GAMG:  Solving for k, Initial residual = 0.001742115401, Final residual = 5.085027508e-06, No Iterations 1
ExecutionTime = 15.27 s  ClockTime = 15 s

Time = 103

GAMG:  Solving for Ux, Initial residual = 0.00194020862, Final residual = 2.513296444e-06, No Iterations 1
GAMG:  Solving for Uy, Initial residual = 0.002053497945, Final residual = 4.023765192e-06, No Iterations 1
GAMG:  Solving for p, Initial residual = 0.006765696853, Final residual = 1.844489865e-05, No Iterations 5
time step continuity errors : sum local = 4.364924344e-05, global = 1.88169924e-06, cumulative = -0.000129421738
GAMG:  Solving for epsilon, Initial residual = 0.0002629176449, Final residual = 7.092496259e-07, No Iterations 1
GAMG:  Solving for k, Initial residual = 0.00170339624, Final residual = 4.986987033e-06, No Iterations 1
ExecutionTime = 15.4 s  ClockTime = 16 s

Time = 104

GAMG:  Solving for Ux, Initial residual = 0.001912160668, Final residual = 2.476962953e-06, No Iterations 1
GAMG:  Solving for Uy, Initial residual = 0.002020611322, Final residual = 3.94116422e-06, No Iterations 1
GAMG:  Solving for p, Initial residual = 0.006619508006, Final residual = 1.764817554e-05, No Iterations 5
time step continuity errors : sum local = 4.179715391e-05, global = 1.861349574e-06, cumulative = -0.0001275603884
GAMG:  Solving for epsilon, Initial residual = 0.0002563649928, Final residual = 6.957893052e-07, No Iterations 1
GAMG:  Solving for k, Initial residual = 0.001666121929, Final residual = 4.89015509e-06, No Iterations 1
ExecutionTime = 15.54 s  ClockTime = 16 s

Time = 105

GAMG:  Solving for Ux, Initial residual = 0.001884013981, Final residual = 2.440084683e-06, No Iterations 1
GAMG:  Solving for Uy, Initial residual = 0.001991758006, Final residual = 3.86069267e-06, No Iterations 1
GAMG:  Solving for p, Initial residual = 0.006474001119, Final residual = 1.701928289e-05, No Iterations 5
time step continuity errors : sum local = 4.033890755e-05, global = 1.832206874e-06, cumulative = -0.0001257281815
GAMG:  Solving for epsilon, Initial residual = 0.0002500763778, Final residual = 6.830237991e-07, No Iterations 1
GAMG:  Solving for k, Initial residual = 0.001630342802, Final residual = 4.794197737e-06, No Iterations 1
ExecutionTime = 15.66 s  ClockTime = 16 s

Time = 106

GAMG:  Solving for Ux, Initial residual = 0.001855768169, Final residual = 2.40308206e-06, No Iterations 1
GAMG:  Solving for Uy, Initial residual = 0.00196424684, Final residual = 3.778618347e-06, No Iterations 1
GAMG:  Solving for p, Initial residual = 0.006325947901, Final residual = 1.658639564e-05, No Iterations 5
time step continuity errors : sum local = 3.934545514e-05, global = 1.802458319e-06, cumulative = -0.0001239257232
GAMG:  Solving for epsilon, Initial residual = 0.0002440537722, Final residual = 6.707925679e-07, No Iterations 1
GAMG:  Solving for k, Initial residual = 0.001595874698, Final residual = 4.699314785e-06, No Iterations 1
ExecutionTime = 15.8 s  ClockTime = 16 s

Time = 107

GAMG:  Solving for Ux, Initial residual = 0.001827501658, Final residual = 2.365598064e-06, No Iterations 1
GAMG:  Solving for Uy, Initial residual = 0.001937098959, Final residual = 3.698167898e-06, No Iterations 1
GAMG:  Solving for p, Initial residual = 0.006177867193, Final residual = 1.639385295e-05, No Iterations 5
time step continuity errors : sum local = 3.89238855e-05, global = 1.796417723e-06, cumulative = -0.0001221293055
GAMG:  Solving for epsilon, Initial residual = 0.0002382841284, Final residual = 6.589730079e-07, No Iterations 1
GAMG:  Solving for k, Initial residual = 0.001562545241, Final residual = 4.605648013e-06, No Iterations 1
ExecutionTime = 15.94 s  ClockTime = 16 s

Time = 108

GAMG:  Solving for Ux, Initial residual = 0.00179920386, Final residual = 2.328051328e-06, No Iterations 1
GAMG:  Solving for Uy, Initial residual = 0.001909697072, Final residual = 3.620213485e-06, No Iterations 1
GAMG:  Solving for p, Initial residual = 0.006030807842, Final residual = 1.637732583e-05, No Iterations 5
time step continuity errors : sum local = 3.892395096e-05, global = 1.822121209e-06, cumulative = -0.0001203071843
GAMG:  Solving for epsilon, Initial residual = 0.0002327284697, Final residual = 6.474731114e-07, No Iterations 1
GAMG:  Solving for k, Initial residual = 0.001530353354, Final residual = 4.512985158e-06, No Iterations 1
ExecutionTime = 16.07 s  ClockTime = 16 s

Time = 109

GAMG:  Solving for Ux, Initial residual = 0.001770932121, Final residual = 2.290477766e-06, No Iterations 1
GAMG:  Solving for Uy, Initial residual = 0.001882340502, Final residual = 3.544128137e-06, No Iterations 1
GAMG:  Solving for p, Initial residual = 0.00588385852, Final residual = 1.637024537e-05, No Iterations 5
time step continuity errors : sum local = 3.895065536e-05, global = 1.860810158e-06, cumulative = -0.0001184463741
GAMG:  Solving for epsilon, Initial residual = 0.0002273690979, Final residual = 6.363066098e-07, No Iterations 1
GAMG:  Solving for k, Initial residual = 0.001499240211, Final residual = 4.421078938e-06, No Iterations 1
ExecutionTime = 16.19 s  ClockTime = 16 s

Time = 110

GAMG:  Solving for Ux, Initial residual = 0.001742670365, Final residual = 2.2528906e-06, No Iterations 1
GAMG:  Solving for Uy, Initial residual = 0.00185565879, Final residual = 3.468453286e-06, No Iterations 1
GAMG:  Solving for p, Initial residual = 0.005743526136, Final residual = 1.625832404e-05, No Iterations 5
time step continuity errors : sum local = 3.873146111e-05, global = 1.889361536e-06, cumulative = -0.0001165570126
GAMG:  Solving for epsilon, Initial residual = 0.0002222028546, Final residual = 6.253344574e-07, No Iterations 1
[...]
GAMG:  Solving for p, Initial residual = 2.11179356e-05, Final residual = 6.236840277e-08, No Iterations 3
time step continuity errors : sum local = 1.679823815e-07, global = -2.993968031e-09, cumulative = -2.50183821e-05
GAMG:  Solving for epsilon, Initial residual = 5.850787544e-08, Final residual = 1.901338508e-10, No Iterations 1
GAMG:  Solving for k, Initial residual = 4.133451502e-07, Final residual = 1.050620136e-09, No Iterations 1
ExecutionTime = 44.26 s  ClockTime = 45 s

Time = 325

GAMG:  Solving for Ux, Initial residual = 4.026696515e-07, Final residual = 4.497390291e-10, No Iterations 1
GAMG:  Solving for Uy, Initial residual = 2.797084806e-06, Final residual = 3.201571935e-09, No Iterations 1
GAMG:  Solving for p, Initial residual = 2.05377309e-05, Final residual = 5.861078776e-08, No Iterations 3
time step continuity errors : sum local = 1.578615873e-07, global = -3.946952282e-09, cumulative = -2.502232905e-05
GAMG:  Solving for epsilon, Initial residual = 5.455522284e-08, Final residual = 1.796184157e-10, No Iterations 1
GAMG:  Solving for k, Initial residual = 3.78346955e-07, Final residual = 9.684457417e-10, No Iterations 1
ExecutionTime = 44.38 s  ClockTime = 45 s

Time = 326

GAMG:  Solving for Ux, Initial residual = 3.716330698e-07, Final residual = 4.175347851e-10, No Iterations 1
GAMG:  Solving for Uy, Initial residual = 2.602176533e-06, Final residual = 2.997286485e-09, No Iterations 1
GAMG:  Solving for p, Initial residual = 1.996644312e-05, Final residual = 5.493285844e-08, No Iterations 3
time step continuity errors : sum local = 1.479554194e-07, global = -5.102494431e-09, cumulative = -2.502743155e-05
GAMG:  Solving for epsilon, Initial residual = 5.089306304e-08, Final residual = 1.697749685e-10, No Iterations 1
GAMG:  Solving for k, Initial residual = 3.463331467e-07, Final residual = 8.930444708e-10, No Iterations 1
ExecutionTime = 44.5 s  ClockTime = 45 s

Time = 327

GAMG:  Solving for Ux, Initial residual = 3.431931278e-07, Final residual = 3.880147832e-10, No Iterations 1
GAMG:  Solving for Uy, Initial residual = 2.421088201e-06, Final residual = 2.809010657e-09, No Iterations 1
GAMG:  Solving for p, Initial residual = 1.941079105e-05, Final residual = 5.133307125e-08, No Iterations 3
time step continuity errors : sum local = 1.382597322e-07, global = -6.370848517e-09, cumulative = -2.50338024e-05
GAMG:  Solving for epsilon, Initial residual = 4.75000194e-08, Final residual = 1.605373195e-10, No Iterations 1
GAMG:  Solving for k, Initial residual = 3.170588836e-07, Final residual = 8.238621047e-10, No Iterations 1
ExecutionTime = 44.62 s  ClockTime = 45 s

Time = 328

GAMG:  Solving for Ux, Initial residual = 3.172005834e-07, Final residual = 3.609157295e-10, No Iterations 1
GAMG:  Solving for Uy, Initial residual = 2.25306654e-06, Final residual = 2.63455064e-09, No Iterations 1
GAMG:  Solving for p, Initial residual = 1.886947654e-05, Final residual = 4.795237541e-08, No Iterations 3
time step continuity errors : sum local = 1.291541511e-07, global = -7.62104565e-09, cumulative = -2.504142344e-05
GAMG:  Solving for epsilon, Initial residual = 4.436337827e-08, Final residual = 1.518598232e-10, No Iterations 1
GAMG:  Solving for k, Initial residual = 2.902978808e-07, Final residual = 7.603873944e-10, No Iterations 1
ExecutionTime = 44.75 s  ClockTime = 45 s

Time = 329

GAMG:  Solving for Ux, Initial residual = 2.933954745e-07, Final residual = 3.360013669e-10, No Iterations 1
GAMG:  Solving for Uy, Initial residual = 2.097411459e-06, Final residual = 2.473454642e-09, No Iterations 1
GAMG:  Solving for p, Initial residual = 1.834337633e-05, Final residual = 4.491435164e-08, No Iterations 3
time step continuity errors : sum local = 1.209715294e-07, global = -8.725829361e-09, cumulative = -2.505014927e-05
GAMG:  Solving for epsilon, Initial residual = 4.14568037e-08, Final residual = 1.437378581e-10, No Iterations 1
GAMG:  Solving for k, Initial residual = 2.658403169e-07, Final residual = 7.021223123e-10, No Iterations 1
ExecutionTime = 44.86 s  ClockTime = 45 s

Time = 330

GAMG:  Solving for Ux, Initial residual = 2.715453274e-07, Final residual = 3.131238217e-10, No Iterations 1
GAMG:  Solving for Uy, Initial residual = 1.953375353e-06, Final residual = 2.325030858e-09, No Iterations 1
GAMG:  Solving for p, Initial residual = 1.782977276e-05, Final residual = 4.225356083e-08, No Iterations 3
time step continuity errors : sum local = 1.138049455e-07, global = -9.605179826e-09, cumulative = -2.505975445e-05
GAMG:  Solving for epsilon, Initial residual = 3.875974708e-08, Final residual = 1.361040256e-10, No Iterations 1
GAMG:  Solving for k, Initial residual = 2.434938008e-07, Final residual = 6.486849558e-10, No Iterations 1
ExecutionTime = 44.99 s  ClockTime = 45 s

Time = 331

GAMG:  Solving for Ux, Initial residual = 2.514481901e-07, Final residual = 2.921492683e-10, No Iterations 1
GAMG:  Solving for Uy, Initial residual = 1.819812403e-06, Final residual = 2.187150298e-09, No Iterations 1
GAMG:  Solving for p, Initial residual = 1.733037123e-05, Final residual = 3.996995862e-08, No Iterations 3
time step continuity errors : sum local = 1.076542858e-07, global = -1.024573226e-08, cumulative = -2.507000018e-05
GAMG:  Solving for epsilon, Initial residual = 3.625851853e-08, Final residual = 1.289341664e-10, No Iterations 1
GAMG:  Solving for k, Initial residual = 2.230808032e-07, Final residual = 5.996995495e-10, No Iterations 1
ExecutionTime = 45.11 s  ClockTime = 45 s

Time = 332

GAMG:  Solving for Ux, Initial residual = 2.329740998e-07, Final residual = 2.728726984e-10, No Iterations 1
GAMG:  Solving for Uy, Initial residual = 1.696124834e-06, Final residual = 2.059025505e-09, No Iterations 1
GAMG:  Solving for p, Initial residual = 1.684648212e-05, Final residual = 3.8046644e-08, No Iterations 3
time step continuity errors : sum local = 1.024740253e-07, global = -1.069065852e-08, cumulative = -2.508069084e-05
GAMG:  Solving for epsilon, Initial residual = 3.393953979e-08, Final residual = 1.222061216e-10, No Iterations 1
GAMG:  Solving for k, Initial residual = 2.044386666e-07, Final residual = 5.547901491e-10, No Iterations 1
ExecutionTime = 45.24 s  ClockTime = 45 s

Time = 333

GAMG:  Solving for Ux, Initial residual = 2.159633704e-07, Final residual = 2.551751427e-10, No Iterations 1
GAMG:  Solving for Uy, Initial residual = 1.581262583e-06, Final residual = 1.939913956e-09, No Iterations 1
GAMG:  Solving for p, Initial residual = 1.638059197e-05, Final residual = 3.633346703e-08, No Iterations 3
time step continuity errors : sum local = 9.785974543e-08, global = -1.101250859e-08, cumulative = -2.509170335e-05
GAMG:  Solving for epsilon, Initial residual = 3.178989067e-08, Final residual = 1.158998332e-10, No Iterations 1
GAMG:  Solving for k, Initial residual = 1.874166357e-07, Final residual = 5.136266554e-10, No Iterations 1
ExecutionTime = 45.35 s  ClockTime = 46 s

Time = 334

GAMG:  Solving for Ux, Initial residual = 2.003059065e-07, Final residual = 2.388987007e-10, No Iterations 1
GAMG:  Solving for Uy, Initial residual = 1.474335222e-06, Final residual = 1.829384252e-09, No Iterations 1
GAMG:  Solving for p, Initial residual = 1.592699712e-05, Final residual = 3.465827678e-08, No Iterations 3
time step continuity errors : sum local = 9.334778657e-08, global = -1.12838398e-08, cumulative = -2.510298719e-05
GAMG:  Solving for epsilon, Initial residual = 2.979689706e-08, Final residual = 1.099959084e-10, No Iterations 1
GAMG:  Solving for k, Initial residual = 1.718769768e-07, Final residual = 4.759261647e-10, No Iterations 1
ExecutionTime = 45.48 s  ClockTime = 46 s

Time = 335

GAMG:  Solving for Ux, Initial residual = 1.858951872e-07, Final residual = 2.238861889e-10, No Iterations 1
GAMG:  Solving for Uy, Initial residual = 1.374836022e-06, Final residual = 1.727318268e-09, No Iterations 1
GAMG:  Solving for p, Initial residual = 1.548567509e-05, Final residual = 3.289306756e-08, No Iterations 3
time step continuity errors : sum local = 8.859337869e-08, global = -1.155467702e-08, cumulative = -2.511454187e-05
GAMG:  Solving for epsilon, Initial residual = 2.794972121e-08, Final residual = 1.044736228e-10, No Iterations 1
GAMG:  Solving for k, Initial residual = 1.576960271e-07, Final residual = 4.414049245e-10, No Iterations 1
ExecutionTime = 45.6 s  ClockTime = 46 s

Time = 336

GAMG:  Solving for Ux, Initial residual = 1.726490031e-07, Final residual = 2.10050368e-10, No Iterations 1
GAMG:  Solving for Uy, Initial residual = 1.282220976e-06, Final residual = 1.633303375e-09, No Iterations 1
GAMG:  Solving for p, Initial residual = 1.505523425e-05, Final residual = 3.102113687e-08, No Iterations 3
time step continuity errors : sum local = 8.355153538e-08, global = -1.184399693e-08, cumulative = -2.512638587e-05
GAMG:  Solving for epsilon, Initial residual = 2.623704261e-08, Final residual = 9.930611793e-11, No Iterations 1
GAMG:  Solving for k, Initial residual = 1.447562348e-07, Final residual = 4.097681251e-10, No Iterations 1
ExecutionTime = 45.72 s  ClockTime = 46 s

Time = 337

GAMG:  Solving for Ux, Initial residual = 1.604891439e-07, Final residual = 1.972969281e-10, No Iterations 1
GAMG:  Solving for Uy, Initial residual = 1.196063511e-06, Final residual = 1.546219812e-09, No Iterations 1
GAMG:  Solving for p, Initial residual = 1.463438456e-05, Final residual = 2.907392873e-08, No Iterations 3
time step continuity errors : sum local = 7.830694304e-08, global = -1.213974034e-08, cumulative = -2.513852561e-05
GAMG:  Solving for epsilon, Initial residual = 2.464747011e-08, Final residual = 9.447071095e-11, No Iterations 1
GAMG:  Solving for k, Initial residual = 1.329518071e-07, Final residual = 3.80801206e-10, No Iterations 1
ExecutionTime = 45.83 s  ClockTime = 46 s

Time = 338

GAMG:  Solving for Ux, Initial residual = 1.493276119e-07, Final residual = 1.855363555e-10, No Iterations 1
GAMG:  Solving for Uy, Initial residual = 1.116093436e-06, Final residual = 1.465297873e-09, No Iterations 1
GAMG:  Solving for p, Initial residual = 1.422371263e-05, Final residual = 2.712922176e-08, No Iterations 3
time step continuity errors : sum local = 7.306909809e-08, global = -1.240983673e-08, cumulative = -2.515093544e-05
GAMG:  Solving for epsilon, Initial residual = 2.317277161e-08, Final residual = 8.994422093e-11, No Iterations 1
GAMG:  Solving for k, Initial residual = 1.221846301e-07, Final residual = 3.542700937e-10, No Iterations 1
ExecutionTime = 45.96 s  ClockTime = 46 s

Time = 339

GAMG:  Solving for Ux, Initial residual = 1.390694853e-07, Final residual = 1.746596918e-10, No Iterations 1
GAMG:  Solving for Uy, Initial residual = 1.041882391e-06, Final residual = 1.389783863e-09, No Iterations 1
GAMG:  Solving for p, Initial residual = 1.382516084e-05, Final residual = 2.527901514e-08, No Iterations 3
time step continuity errors : sum local = 6.80857787e-08, global = -1.261734282e-08, cumulative = -2.516355279e-05
GAMG:  Solving for epsilon, Initial residual = 2.180454258e-08, Final residual = 8.570746829e-11, No Iterations 1
GAMG:  Solving for k, Initial residual = 1.123644839e-07, Final residual = 3.299694476e-10, No Iterations 1
ExecutionTime = 46.08 s  ClockTime = 46 s

Time = 340

GAMG:  Solving for Ux, Initial residual = 1.296274812e-07, Final residual = 1.6461761e-10, No Iterations 1
GAMG:  Solving for Uy, Initial residual = 9.729772979e-07, Final residual = 1.319552456e-09, No Iterations 1
GAMG:  Solving for p, Initial residual = 1.343573632e-05, Final residual = 2.359644541e-08, No Iterations 3
time step continuity errors : sum local = 6.355397763e-08, global = -1.273429513e-08, cumulative = -2.517628708e-05
GAMG:  Solving for epsilon, Initial residual = 2.053287771e-08, Final residual = 8.173247317e-11, No Iterations 1
GAMG:  Solving for k, Initial residual = 1.034098473e-07, Final residual = 3.077113903e-10, No Iterations 1
ExecutionTime = 46.2 s  ClockTime = 46 s

Time = 341

GAMG:  Solving for Ux, Initial residual = 1.209236844e-07, Final residual = 1.553393086e-10, No Iterations 1
GAMG:  Solving for Uy, Initial residual = 9.091520969e-07, Final residual = 1.254267219e-09, No Iterations 1
GAMG:  Solving for p, Initial residual = 1.305893258e-05, Final residual = 2.217647146e-08, No Iterations 3
time step continuity errors : sum local = 5.972944553e-08, global = -1.274921945e-08, cumulative = -2.51890363e-05
GAMG:  Solving for epsilon, Initial residual = 1.935278187e-08, Final residual = 7.799848434e-11, No Iterations 1
GAMG:  Solving for k, Initial residual = 9.524470401e-08, Final residual = 2.873179745e-10, No Iterations 1
ExecutionTime = 46.33 s  ClockTime = 47 s

Time = 342

GAMG:  Solving for Ux, Initial residual = 1.128999625e-07, Final residual = 1.46743487e-10, No Iterations 1
GAMG:  Solving for Uy, Initial residual = 8.499780503e-07, Final residual = 1.193035291e-09, No Iterations 1
GAMG:  Solving for p, Initial residual = 1.269555885e-05, Final residual = 2.100919264e-08, No Iterations 3
time step continuity errors : sum local = 5.65855169e-08, global = -1.266661317e-08, cumulative = -2.520170291e-05
GAMG:  Solving for epsilon, Initial residual = 1.825608073e-08, Final residual = 7.449056434e-11, No Iterations 1
GAMG:  Solving for k, Initial residual = 8.779942344e-08, Final residual = 2.686212846e-10, No Iterations 1
ExecutionTime = 46.45 s  ClockTime = 47 s

Time = 343

GAMG:  Solving for Ux, Initial residual = 1.05495854e-07, Final residual = 1.387986505e-10, No Iterations 1
GAMG:  Solving for Uy, Initial residual = 7.953023062e-07, Final residual = 1.135960186e-09, No Iterations 1
GAMG:  Solving for p, Initial residual = 1.233980124e-05, Final residual = 2.004588754e-08, No Iterations 3
time step continuity errors : sum local = 5.399096827e-08, global = -1.250127547e-08, cumulative = -2.521420419e-05
GAMG:  Solving for epsilon, Initial residual = 1.723773898e-08, Final residual = 7.118727921e-11, No Iterations 1
GAMG:  Solving for k, Initial residual = 8.100961012e-08, Final residual = 2.51473463e-10, No Iterations 1
ExecutionTime = 46.68 s  ClockTime = 47 s

Time = 344

GAMG:  Solving for Ux, Initial residual = 9.867339522e-08, Final residual = 1.314519829e-10, No Iterations 1
GAMG:  Solving for Uy, Initial residual = 7.447143741e-07, Final residual = 1.08294325e-09, No Iterations 1
GAMG:  Solving for p, Initial residual = 1.199391319e-05, Final residual = 1.923728711e-08, No Iterations 3
time step continuity errors : sum local = 5.181310011e-08, global = -1.227145414e-08, cumulative = -2.522647564e-05
GAMG:  Solving for epsilon, Initial residual = 1.629149268e-08, Final residual = 6.807144686e-11, No Iterations 1
GAMG:  Solving for k, Initial residual = 7.481824206e-08, Final residual = 2.357378884e-10, No Iterations 1
ExecutionTime = 46.81 s  ClockTime = 47 s

Time = 345

GAMG:  Solving for Ux, Initial residual = 9.238391136e-08, Final residual = 1.246367719e-10, No Iterations 1
GAMG:  Solving for Uy, Initial residual = 6.979484769e-07, Final residual = 1.033233421e-09, No Iterations 1
GAMG:  Solving for p, Initial residual = 1.166022557e-05, Final residual = 1.854427489e-08, No Iterations 3
time step continuity errors : sum local = 4.994655359e-08, global = -1.199407858e-08, cumulative = -2.523846972e-05
GAMG:  Solving for epsilon, Initial residual = 1.541038861e-08, Final residual = 6.512823032e-11, No Iterations 1
GAMG:  Solving for k, Initial residual = 6.917076867e-08, Final residual = 2.213019021e-10, No Iterations 1
ExecutionTime = 46.94 s  ClockTime = 47 s

Time = 346

GAMG:  Solving for Ux, Initial residual = 8.657843998e-08, Final residual = 1.183236124e-10, No Iterations 1
GAMG:  Solving for Uy, Initial residual = 6.547268293e-07, Final residual = 9.863599591e-10, No Iterations 1
GAMG:  Solving for p, Initial residual = 1.133945407e-05, Final residual = 1.792225945e-08, No Iterations 3
time step continuity errors : sum local = 4.82712296e-08, global = -1.168243865e-08, cumulative = -2.525015216e-05
GAMG:  Solving for epsilon, Initial residual = 1.458849127e-08, Final residual = 6.234398047e-11, No Iterations 1
GAMG:  Solving for k, Initial residual = 6.401805422e-08, Final residual = 2.080454515e-10, No Iterations 1
ExecutionTime = 47.05 s  ClockTime = 47 s

Time = 347

GAMG:  Solving for Ux, Initial residual = 8.121982758e-08, Final residual = 1.124577152e-10, No Iterations 1
GAMG:  Solving for Uy, Initial residual = 6.146727664e-07, Final residual = 9.423266503e-10, No Iterations 1
GAMG:  Solving for p, Initial residual = 1.102852323e-05, Final residual = 1.734725427e-08, No Iterations 3
time step continuity errors : sum local = 4.672252338e-08, global = -1.134572483e-08, cumulative = -2.526149788e-05
GAMG:  Solving for epsilon, Initial residual = 1.382252104e-08, Final residual = 5.97057909e-11, No Iterations 1
GAMG:  Solving for k, Initial residual = 5.931546596e-08, Final residual = 1.958735363e-10, No Iterations 1
ExecutionTime = 47.18 s  ClockTime = 47 s

Time = 348

GAMG:  Solving for Ux, Initial residual = 7.627431382e-08, Final residual = 1.070102152e-10, No Iterations 1
GAMG:  Solving for Uy, Initial residual = 5.776592923e-07, Final residual = 9.008727746e-10, No Iterations 1
GAMG:  Solving for p, Initial residual = 1.07290222e-05, Final residual = 1.67939491e-08, No Iterations 3
time step continuity errors : sum local = 4.52322639e-08, global = -1.098999161e-08, cumulative = -2.527248788e-05
GAMG:  Solving for epsilon, Initial residual = 1.310929148e-08, Final residual = 5.720643733e-11, No Iterations 1
GAMG:  Solving for k, Initial residual = 5.502304694e-08, Final residual = 1.846986091e-10, No Iterations 1
ExecutionTime = 47.3 s  ClockTime = 48 s

Time = 349

GAMG:  Solving for Ux, Initial residual = 7.171002843e-08, Final residual = 1.019045716e-10, No Iterations 1
GAMG:  Solving for Uy, Initial residual = 5.433845193e-07, Final residual = 8.619352941e-10, No Iterations 1
GAMG:  Solving for p, Initial residual = 1.043652903e-05, Final residual = 1.625235354e-08, No Iterations 3
time step continuity errors : sum local = 4.377354033e-08, global = -1.061914649e-08, cumulative = -2.528310702e-05
GAMG:  Solving for epsilon, Initial residual = 1.244247866e-08, Final residual = 5.483391411e-11, No Iterations 1
GAMG:  Solving for k, Initial residual = 5.11038763e-08, Final residual = 1.743981144e-10, No Iterations 1
ExecutionTime = 47.43 s  ClockTime = 48 s

Time = 350

GAMG:  Solving for Ux, Initial residual = 6.748498072e-08, Final residual = 9.712051889e-11, No Iterations 1
GAMG:  Solving for Uy, Initial residual = 5.116439293e-07, Final residual = 8.254425136e-10, No Iterations 1
GAMG:  Solving for p, Initial residual = 1.015278603e-05, Final residual = 1.570868134e-08, No Iterations 3
time step continuity errors : sum local = 4.230922873e-08, global = -1.023592434e-08, cumulative = -2.529334295e-05
GAMG:  Solving for epsilon, Initial residual = 1.181857491e-08, Final residual = 5.257524345e-11, No Iterations 1
GAMG:  Solving for k, Initial residual = 4.752403552e-08, Final residual = 1.648944481e-10, No Iterations 1
ExecutionTime = 47.55 s  ClockTime = 48 s

Time = 351

GAMG:  Solving for Ux, Initial residual = 6.357634138e-08, Final residual = 9.265066298e-11, No Iterations 1
GAMG:  Solving for Uy, Initial residual = 4.820754974e-07, Final residual = 7.913439522e-10, No Iterations 1
GAMG:  Solving for p, Initial residual = 9.87668237e-06, Final residual = 1.516894402e-08, No Iterations 3
time step continuity errors : sum local = 4.085551406e-08, global = -9.842582515e-09, cumulative = -2.530318553e-05
GAMG:  Solving for epsilon, Initial residual = 1.123550661e-08, Final residual = 5.04326083e-11, No Iterations 1
GAMG:  Solving for k, Initial residual = 4.425374866e-08, Final residual = 1.561153961e-10, No Iterations 1
ExecutionTime = 47.67 s  ClockTime = 48 s


SIMPLE solution converged in 351 iterations

End

