/*---------------------------------------------------------------------------*\
| =========                 |                                                 |
| \\      /  F ield         | OpenFOAM: The Open Source CFD Toolbox           |
|  \\    /   O peration     | Version:  2312                                  |
|   \\  /    A nd           | Website:  www.openfoam.com                      |
|    \\/     M anipulation  |                                                 |
\*---------------------------------------------------------------------------*/
Build  : _e651d635-20240208 OPENFOAM=2312 patch=240220 version=2312
Arch   : "LSB;label=32;scalar=64"
Exec   : simpleFoam
Date   : Sep 03 2025
Time   : 13:55:43
Host   : summit
PID    : 9724
I/O    : uncollated
Case   : /home/vecerniv/my_libs/lutils-rewrite/tests/bfs/simpleFoam_kE
nProcs : 1
trapFpe: Floating point exception trapping enabled (FOAM_SIGFPE).
fileModificationChecking : Monitoring run-time modified files using timeStampMaster (fileModificationSkew 5, maxFileModificationPolls 20)
allowSystemOperations : Allowing user-supplied system call operations

// * * * * * * * * * * * * * * * * * * * * * * * * * * * * * * * * * * * * * //
Create time

Create mesh for time = 0


SIMPLE: convergence criteria
    field p	 tolerance 1e-05

Reading field p

Reading field U

Reading/calculating face flux field phi

Selecting incompressible transport model Newtonian
Selecting turbulence model type RAS
Selecting RAS turbulence model kEpsilon
RAS
{
    RASModel        kEpsilon;
    turbulence      on;
    printCoeffs     on;
    Cmu             0.09;
    C1              1.44;
    C2              1.92;
    C3              0;
    sigmak          1;
    sigmaEps        1.3;
}

No MRF models present

No finite volume options present

Starting time loop

--> FOAM Warning : 

    failed lookup of wall (objectRegistry simpleFoam_kE)
    available objects of type objectRegistry:
1(region0)


    From const Type& Foam::objectRegistry::lookupObject(const Foam::word&, bool) const [with Type = Foam::objectRegistry]
    in file db/objectRegistry/objectRegistryTemplates.C at line 628.
--> loading function object 'yPlus1'

Time = 1

GAMG:  Solving for Ux, Initial residual = 1, Final residual = 0.0005908415567, No Iterations 2
GAMG:  Solving for Uy, Initial residual = 0.02767991333, Final residual = 1.139751473e-05, No Iterations 2
GAMG:  Solving for p, Initial residual = 1, Final residual = 0.002515188938, No Iterations 13
time step continuity errors : sum local = 0.0002016387913, global = 7.191882989e-06, cumulative = 7.191882989e-06
GAMG:  Solving for epsilon, Initial residual = 0.061340317, Final residual = 3.364317987e-05, No Iterations 2
GAMG:  Solving for k, Initial residual = 0.9999999996, Final residual = 0.006187598655, No Iterations 1
ExecutionTime = 0.68 s  ClockTime = 0 s

Time = 2

GAMG:  Solving for Ux, Initial residual = 0.3155747454, Final residual = 0.0005448328552, No Iterations 1
GAMG:  Solving for Uy, Initial residual = 0.2565184281, Final residual = 0.001316430985, No Iterations 1
GAMG:  Solving for p, Initial residual = 0.004087978456, Final residual = 1.281598196e-05, No Iterations 11
time step continuity errors : sum local = 0.0003508678934, global = 1.460880181e-05, cumulative = 2.18006848e-05
GAMG:  Solving for epsilon, Initial residual = 0.007345994984, Final residual = 3.057493918e-06, No Iterations 2
GAMG:  Solving for k, Initial residual = 0.70601153, Final residual = 0.003622481969, No Iterations 1
ExecutionTime = 0.87 s  ClockTime = 1 s

Time = 3

GAMG:  Solving for Ux, Initial residual = 0.1963449363, Final residual = 0.0003452503752, No Iterations 1
GAMG:  Solving for Uy, Initial residual = 0.1618320968, Final residual = 0.0004791523774, No Iterations 1
GAMG:  Solving for p, Initial residual = 0.003599976829, Final residual = 8.814336375e-06, No Iterations 8
time step continuity errors : sum local = 0.0003535381681, global = 1.251369721e-05, cumulative = 3.431438201e-05
GAMG:  Solving for epsilon, Initial residual = 0.004584010576, Final residual = 1.227574396e-06, No Iterations 2
GAMG:  Solving for k, Initial residual = 0.3729556421, Final residual = 0.002362538614, No Iterations 1
ExecutionTime = 1.04 s  ClockTime = 1 s

Time = 4

GAMG:  Solving for Ux, Initial residual = 0.1320525615, Final residual = 0.0002148758524, No Iterations 1
GAMG:  Solving for Uy, Initial residual = 0.111045906, Final residual = 0.0002517844351, No Iterations 1
GAMG:  Solving for p, Initial residual = 0.004889694667, Final residual = 1.110084378e-05, No Iterations 9
time step continuity errors : sum local = 0.0004602985839, global = -2.001588118e-05, cumulative = 1.429850083e-05
GAMG:  Solving for epsilon, Initial residual = 0.004349748124, Final residual = 4.096231947e-05, No Iterations 1
GAMG:  Solving for k, Initial residual = 0.2547539859, Final residual = 0.001630696818, No Iterations 1
ExecutionTime = 1.22 s  ClockTime = 1 s

Time = 5

GAMG:  Solving for Ux, Initial residual = 0.08715022694, Final residual = 0.0001318244935, No Iterations 1
GAMG:  Solving for Uy, Initial residual = 0.07409773093, Final residual = 0.0001524955275, No Iterations 1
GAMG:  Solving for p, Initial residual = 0.007689078233, Final residual = 3.120974869e-05, No Iterations 9
time step continuity errors : sum local = 0.001071424503, global = -3.991207363e-05, cumulative = -2.56135728e-05
GAMG:  Solving for epsilon, Initial residual = 0.005092474159, Final residual = 4.291722567e-05, No Iterations 1
GAMG:  Solving for k, Initial residual = 0.1736780345, Final residual = 0.001046437083, No Iterations 1
ExecutionTime = 1.39 s  ClockTime = 1 s

Time = 6

GAMG:  Solving for Ux, Initial residual = 0.05098869143, Final residual = 7.914206953e-05, No Iterations 1
GAMG:  Solving for Uy, Initial residual = 0.04550621214, Final residual = 0.0001001720458, No Iterations 1
GAMG:  Solving for p, Initial residual = 0.01328584205, Final residual = 5.968034225e-05, No Iterations 9
time step continuity errors : sum local = 0.00130104871, global = -4.215903004e-05, cumulative = -6.777260284e-05
GAMG:  Solving for epsilon, Initial residual = 0.005393378979, Final residual = 3.504897647e-05, No Iterations 1
GAMG:  Solving for k, Initial residual = 0.1165275873, Final residual = 0.0006650398064, No Iterations 1
ExecutionTime = 1.55 s  ClockTime = 1 s

Time = 7

GAMG:  Solving for Ux, Initial residual = 0.02027211111, Final residual = 5.188351459e-05, No Iterations 1
GAMG:  Solving for Uy, Initial residual = 0.02283546539, Final residual = 7.19422199e-05, No Iterations 1
GAMG:  Solving for p, Initial residual = 0.0378899304, Final residual = 0.0001584974135, No Iterations 9
time step continuity errors : sum local = 0.001194688365, global = -3.711394647e-05, cumulative = -0.0001048865493
GAMG:  Solving for epsilon, Initial residual = 0.005440762609, Final residual = 5.349143867e-05, No Iterations 1
GAMG:  Solving for k, Initial residual = 0.08056313631, Final residual = 0.0004674319715, No Iterations 1
ExecutionTime = 1.71 s  ClockTime = 1 s

Time = 8

GAMG:  Solving for Ux, Initial residual = 0.01775909132, Final residual = 5.774325223e-05, No Iterations 1
GAMG:  Solving for Uy, Initial residual = 0.0167382591, Final residual = 7.492014837e-05, No Iterations 1
GAMG:  Solving for p, Initial residual = 0.03778212559, Final residual = 9.942378556e-05, No Iterations 9
time step continuity errors : sum local = 0.0006474127968, global = -2.687786587e-05, cumulative = -0.0001317644152
GAMG:  Solving for epsilon, Initial residual = 0.004463757247, Final residual = 1.018742523e-06, No Iterations 2
GAMG:  Solving for k, Initial residual = 0.05940540466, Final residual = 0.0003653828802, No Iterations 1
ExecutionTime = 1.88 s  ClockTime = 2 s

Time = 9

GAMG:  Solving for Ux, Initial residual = 0.04235665611, Final residual = 7.657402888e-05, No Iterations 1
GAMG:  Solving for Uy, Initial residual = 0.02798128513, Final residual = 0.0001047813562, No Iterations 1
GAMG:  Solving for p, Initial residual = 0.01341265023, Final residual = 3.993726578e-05, No Iterations 8
time step continuity errors : sum local = 0.0006258297239, global = -1.357369447e-05, cumulative = -0.0001453381096
GAMG:  Solving for epsilon, Initial residual = 0.003924646231, Final residual = 2.917215822e-05, No Iterations 1
GAMG:  Solving for k, Initial residual = 0.05512122445, Final residual = 0.0003317952285, No Iterations 1
ExecutionTime = 2.03 s  ClockTime = 2 s

Time = 10

GAMG:  Solving for Ux, Initial residual = 0.06075468264, Final residual = 0.0001018397178, No Iterations 1
GAMG:  Solving for Uy, Initial residual = 0.04302737849, Final residual = 0.000123357579, No Iterations 1
GAMG:  Solving for p, Initial residual = 0.009693237597, Final residual = 4.418351606e-05, No Iterations 6
time step continuity errors : sum local = 0.0008885987415, global = 4.316852923e-05, cumulative = -0.0001021695804
GAMG:  Solving for epsilon, Initial residual = 0.004225720051, Final residual = 3.282185903e-05, No Iterations 1
GAMG:  Solving for k, Initial residual = 0.05777420276, Final residual = 0.00034715544, No Iterations 1
ExecutionTime = 2.16 s  ClockTime = 2 s

Time = 11

GAMG:  Solving for Ux, Initial residual = 0.06863494188, Final residual = 0.000108608974, No Iterations 1
GAMG:  Solving for Uy, Initial residual = 0.05285846173, Final residual = 0.0001842907144, No Iterations 1
GAMG:  Solving for p, Initial residual = 0.009740583349, Final residual = 3.449050966e-05, No Iterations 7
time step continuity errors : sum local = 0.0006831612055, global = 2.803611917e-05, cumulative = -7.413346125e-05
GAMG:  Solving for epsilon, Initial residual = 0.003317679867, Final residual = 1.78897214e-05, No Iterations 1
GAMG:  Solving for k, Initial residual = 0.06072230022, Final residual = 0.0003160197865, No Iterations 1
ExecutionTime = 2.31 s  ClockTime = 2 s

Time = 12

GAMG:  Solving for Ux, Initial residual = 0.06176716864, Final residual = 9.788106142e-05, No Iterations 1
GAMG:  Solving for Uy, Initial residual = 0.05043292111, Final residual = 0.0001490241015, No Iterations 1
GAMG:  Solving for p, Initial residual = 0.01064752022, Final residual = 2.487948311e-05, No Iterations 9
time step continuity errors : sum local = 0.0003957607021, global = 1.806213627e-05, cumulative = -5.607132498e-05
GAMG:  Solving for epsilon, Initial residual = 0.00285758352, Final residual = 1.838077773e-05, No Iterations 1
GAMG:  Solving for k, Initial residual = 0.06181191895, Final residual = 0.0003285098337, No Iterations 1
ExecutionTime = 2.47 s  ClockTime = 2 s

Time = 13

GAMG:  Solving for Ux, Initial residual = 0.04090872905, Final residual = 6.399553423e-05, No Iterations 1
GAMG:  Solving for Uy, Initial residual = 0.03673724939, Final residual = 0.0001180673514, No Iterations 1
GAMG:  Solving for p, Initial residual = 0.01568613214, Final residual = 5.563067176e-05, No Iterations 9
time step continuity errors : sum local = 0.0005506767475, global = 1.973212228e-05, cumulative = -3.633920269e-05
GAMG:  Solving for epsilon, Initial residual = 0.002026334759, Final residual = 1.252607745e-05, No Iterations 1
GAMG:  Solving for k, Initial residual = 0.06208768584, Final residual = 0.0003072916583, No Iterations 1
ExecutionTime = 2.64 s  ClockTime = 2 s

Time = 14

GAMG:  Solving for Ux, Initial residual = 0.014919794, Final residual = 3.384180166e-05, No Iterations 1
GAMG:  Solving for Uy, Initial residual = 0.02338375386, Final residual = 0.0001021564699, No Iterations 1
GAMG:  Solving for p, Initial residual = 0.04270274271, Final residual = 0.0001413397108, No Iterations 9
time step continuity errors : sum local = 0.0004651222859, global = 1.73624675e-05, cumulative = -1.897673519e-05
GAMG:  Solving for epsilon, Initial residual = 0.001651213175, Final residual = 1.165188748e-05, No Iterations 1
GAMG:  Solving for k, Initial residual = 0.06081944013, Final residual = 0.0002938566008, No Iterations 1
ExecutionTime = 2.79 s  ClockTime = 3 s

Time = 15

GAMG:  Solving for Ux, Initial residual = 0.01676795044, Final residual = 3.756373855e-05, No Iterations 1
GAMG:  Solving for Uy, Initial residual = 0.0209880483, Final residual = 8.509307753e-05, No Iterations 1
GAMG:  Solving for p, Initial residual = 0.03833435919, Final residual = 8.035613717e-05, No Iterations 9
time step continuity errors : sum local = 0.0002753744767, global = 1.287355131e-05, cumulative = -6.103183881e-06
GAMG:  Solving for epsilon, Initial residual = 0.001365327375, Final residual = 9.867108652e-06, No Iterations 1
GAMG:  Solving for k, Initial residual = 0.05918008081, Final residual = 0.0002780660769, No Iterations 1
ExecutionTime = 2.95 s  ClockTime = 3 s

Time = 16

GAMG:  Solving for Ux, Initial residual = 0.02692714272, Final residual = 4.747287012e-05, No Iterations 1
GAMG:  Solving for Uy, Initial residual = 0.02584797921, Final residual = 7.857972879e-05, No Iterations 1
GAMG:  Solving for p, Initial residual = 0.01778505563, Final residual = 5.614228542e-05, No Iterations 7
time step continuity errors : sum local = 0.0004057651772, global = 2.151527584e-05, cumulative = 1.541209196e-05
GAMG:  Solving for epsilon, Initial residual = 0.001161894125, Final residual = 8.622210687e-06, No Iterations 1
GAMG:  Solving for k, Initial residual = 0.05889970177, Final residual = 0.0002633864329, No Iterations 1
ExecutionTime = 3.09 s  ClockTime = 3 s

Time = 17

GAMG:  Solving for Ux, Initial residual = 0.02924167708, Final residual = 4.852160605e-05, No Iterations 1
GAMG:  Solving for Uy, Initial residual = 0.02805560867, Final residual = 6.637318433e-05, No Iterations 1
GAMG:  Solving for p, Initial residual = 0.01461904376, Final residual = 2.954483708e-05, No Iterations 7
time step continuity errors : sum local = 0.0002616290768, global = -1.72271264e-05, cumulative = -1.81503444e-06
GAMG:  Solving for epsilon, Initial residual = 0.001049814166, Final residual = 7.65784078e-06, No Iterations 1
GAMG:  Solving for k, Initial residual = 0.05820044791, Final residual = 0.0002475520668, No Iterations 1
ExecutionTime = 3.24 s  ClockTime = 3 s

Time = 18

GAMG:  Solving for Ux, Initial residual = 0.02590020832, Final residual = 4.294095145e-05, No Iterations 1
GAMG:  Solving for Uy, Initial residual = 0.02562110823, Final residual = 5.764030073e-05, No Iterations 1
GAMG:  Solving for p, Initial residual = 0.01473123643, Final residual = 5.127218671e-05, No Iterations 7
time step continuity errors : sum local = 0.0004301997066, global = -1.724496127e-05, cumulative = -1.905999571e-05
GAMG:  Solving for epsilon, Initial residual = 0.001000827705, Final residual = 7.313029166e-06, No Iterations 1
GAMG:  Solving for k, Initial residual = 0.05639673717, Final residual = 0.0002318772533, No Iterations 1
ExecutionTime = 3.38 s  ClockTime = 3 s

Time = 19

GAMG:  Solving for Ux, Initial residual = 0.01929426367, Final residual = 3.418190319e-05, No Iterations 1
GAMG:  Solving for Uy, Initial residual = 0.0199796484, Final residual = 4.524091204e-05, No Iterations 1
GAMG:  Solving for p, Initial residual = 0.01862915131, Final residual = 7.451200792e-05, No Iterations 8
time step continuity errors : sum local = 0.0004770215049, global = -1.067879906e-05, cumulative = -2.973879476e-05
GAMG:  Solving for epsilon, Initial residual = 0.001034385922, Final residual = 7.726721434e-06, No Iterations 1
GAMG:  Solving for k, Initial residual = 0.05424446338, Final residual = 0.0002195169926, No Iterations 1
ExecutionTime = 3.54 s  ClockTime = 3 s

Time = 20

GAMG:  Solving for Ux, Initial residual = 0.01143279926, Final residual = 2.43581054e-05, No Iterations 1
GAMG:  Solving for Uy, Initial residual = 0.01298299569, Final residual = 3.520362426e-05, No Iterations 1
GAMG:  Solving for p, Initial residual = 0.03060997698, Final residual = 8.099899585e-05, No Iterations 9
time step continuity errors : sum local = 0.0002889449033, global = -8.865022653e-06, cumulative = -3.860381742e-05
GAMG:  Solving for epsilon, Initial residual = 0.001151114984, Final residual = 8.458496504e-06, No Iterations 1
GAMG:  Solving for k, Initial residual = 0.05214074978, Final residual = 0.000210313901, No Iterations 1
ExecutionTime = 3.7 s  ClockTime = 3 s

Time = 21

GAMG:  Solving for Ux, Initial residual = 0.004184945223, Final residual = 1.662141779e-05, No Iterations 1
GAMG:  Solving for Uy, Initial residual = 0.007775957108, Final residual = 2.990195236e-05, No Iterations 1
GAMG:  Solving for p, Initial residual = 0.1506083524, Final residual = 0.0003257990206, No Iterations 9
time step continuity errors : sum local = 0.0002080937223, global = -7.535310355e-06, cumulative = -4.613912777e-05
GAMG:  Solving for epsilon, Initial residual = 0.001260434643, Final residual = 9.032077665e-06, No Iterations 1
GAMG:  Solving for k, Initial residual = 0.05045988853, Final residual = 0.0002029613715, No Iterations 1
ExecutionTime = 3.85 s  ClockTime = 4 s

Time = 22

GAMG:  Solving for Ux, Initial residual = 0.009071348531, Final residual = 1.921334358e-05, No Iterations 1
GAMG:  Solving for Uy, Initial residual = 0.00812472495, Final residual = 2.904685081e-05, No Iterations 1
GAMG:  Solving for p, Initial residual = 0.03007559253, Final residual = 0.0001003549699, No Iterations 8
time step continuity errors : sum local = 0.000271372768, global = -5.029227903e-06, cumulative = -5.116835567e-05
GAMG:  Solving for epsilon, Initial residual = 0.001365145752, Final residual = 9.529912118e-06, No Iterations 1
GAMG:  Solving for k, Initial residual = 0.04908410295, Final residual = 0.0001982260365, No Iterations 1
ExecutionTime = 4.01 s  ClockTime = 4 s

Time = 23

GAMG:  Solving for Ux, Initial residual = 0.01334045238, Final residual = 2.317514327e-05, No Iterations 1
GAMG:  Solving for Uy, Initial residual = 0.01146243957, Final residual = 3.142725911e-05, No Iterations 1
GAMG:  Solving for p, Initial residual = 0.01591307158, Final residual = 7.262184217e-05, No Iterations 7
time step continuity errors : sum local = 0.0003072221312, global = -9.260915778e-06, cumulative = -6.042927145e-05
GAMG:  Solving for epsilon, Initial residual = 0.001428134628, Final residual = 9.760095332e-06, No Iterations 1
GAMG:  Solving for k, Initial residual = 0.04787958341, Final residual = 0.0001937200006, No Iterations 1
ExecutionTime = 4.15 s  ClockTime = 4 s

Time = 24

GAMG:  Solving for Ux, Initial residual = 0.01502006757, Final residual = 2.449802021e-05, No Iterations 1
GAMG:  Solving for Uy, Initial residual = 0.01342422716, Final residual = 3.327177617e-05, No Iterations 1
GAMG:  Solving for p, Initial residual = 0.01329408839, Final residual = 2.65130656e-05, No Iterations 7
time step continuity errors : sum local = 0.0001259154504, global = 4.518624763e-06, cumulative = -5.591064669e-05
GAMG:  Solving for epsilon, Initial residual = 0.001441326536, Final residual = 9.635879659e-06, No Iterations 1
GAMG:  Solving for k, Initial residual = 0.04686321612, Final residual = 0.0001880298704, No Iterations 1
ExecutionTime = 4.3 s  ClockTime = 4 s

Time = 25

GAMG:  Solving for Ux, Initial residual = 0.01412183317, Final residual = 2.309061679e-05, No Iterations 1
GAMG:  Solving for Uy, Initial residual = 0.01322852048, Final residual = 3.397760468e-05, No Iterations 1
GAMG:  Solving for p, Initial residual = 0.01404568098, Final residual = 5.03933563e-05, No Iterations 7
time step continuity errors : sum local = 0.000219631332, global = 9.21686559e-06, cumulative = -4.66937811e-05
GAMG:  Solving for epsilon, Initial residual = 0.001385034743, Final residual = 9.026236136e-06, No Iterations 1
GAMG:  Solving for k, Initial residual = 0.04539882058, Final residual = 0.0001792209179, No Iterations 1
ExecutionTime = 4.45 s  ClockTime = 4 s

Time = 26

GAMG:  Solving for Ux, Initial residual = 0.01120962713, Final residual = 1.961227552e-05, No Iterations 1
GAMG:  Solving for Uy, Initial residual = 0.01170662292, Final residual = 3.343180146e-05, No Iterations 1
GAMG:  Solving for p, Initial residual = 0.01836622059, Final residual = 6.513173963e-05, No Iterations 8
time step continuity errors : sum local = 0.0002163799174, global = 5.69889404e-06, cumulative = -4.099488706e-05
GAMG:  Solving for epsilon, Initial residual = 0.001301148882, Final residual = 8.184681957e-06, No Iterations 1
GAMG:  Solving for k, Initial residual = 0.04363526727, Final residual = 0.0001685390844, No Iterations 1
ExecutionTime = 4.6 s  ClockTime = 4 s

Time = 27

GAMG:  Solving for Ux, Initial residual = 0.007274781735, Final residual = 1.543713554e-05, No Iterations 1
GAMG:  Solving for Uy, Initial residual = 0.009811536736, Final residual = 3.200934249e-05, No Iterations 1
GAMG:  Solving for p, Initial residual = 0.03102380614, Final residual = 0.000113434802, No Iterations 8
time step continuity errors : sum local = 0.0002239399849, global = 5.408996038e-06, cumulative = -3.558589102e-05
GAMG:  Solving for epsilon, Initial residual = 0.001215178172, Final residual = 7.454049046e-06, No Iterations 1
GAMG:  Solving for k, Initial residual = 0.04174016575, Final residual = 0.0001579416929, No Iterations 1
ExecutionTime = 4.75 s  ClockTime = 5 s

Time = 28

GAMG:  Solving for Ux, Initial residual = 0.003948140186, Final residual = 1.404888315e-05, No Iterations 1
GAMG:  Solving for Uy, Initial residual = 0.008507867037, Final residual = 2.991329627e-05, No Iterations 1
GAMG:  Solving for p, Initial residual = 0.09323407945, Final residual = 0.0004084064162, No Iterations 7
time step continuity errors : sum local = 0.000262567607, global = 1.04094764e-05, cumulative = -2.517641462e-05
GAMG:  Solving for epsilon, Initial residual = 0.001132145602, Final residual = 6.743407038e-06, No Iterations 1
GAMG:  Solving for k, Initial residual = 0.04003661726, Final residual = 0.0001481909576, No Iterations 1
ExecutionTime = 4.9 s  ClockTime = 5 s

Time = 29

GAMG:  Solving for Ux, Initial residual = 0.005689210963, Final residual = 1.594779884e-05, No Iterations 1
GAMG:  Solving for Uy, Initial residual = 0.008568596931, Final residual = 2.792334651e-05, No Iterations 1
GAMG:  Solving for p, Initial residual = 0.04677880251, Final residual = 0.0001331075624, No Iterations 7
time step continuity errors : sum local = 0.0001626949857, global = 9.382816845e-06, cumulative = -1.579359778e-05
GAMG:  Solving for epsilon, Initial residual = 0.001061178122, Final residual = 6.05087628e-06, No Iterations 1
GAMG:  Solving for k, Initial residual = 0.03861205811, Final residual = 0.0001392271543, No Iterations 1
ExecutionTime = 5.04 s  ClockTime = 5 s

Time = 30

GAMG:  Solving for Ux, Initial residual = 0.006926792395, Final residual = 1.699156386e-05, No Iterations 1
GAMG:  Solving for Uy, Initial residual = 0.008940604164, Final residual = 2.611782035e-05, No Iterations 1
GAMG:  Solving for p, Initial residual = 0.02969157177, Final residual = 0.0001014134892, No Iterations 6
time step continuity errors : sum local = 0.0001872875, global = 7.463965353e-06, cumulative = -8.329632423e-06
GAMG:  Solving for epsilon, Initial residual = 0.001011978692, Final residual = 5.425078561e-06, No Iterations 1
GAMG:  Solving for k, Initial residual = 0.03730558837, Final residual = 0.0001311100408, No Iterations 1
ExecutionTime = 5.18 s  ClockTime = 5 s

Time = 31

GAMG:  Solving for Ux, Initial residual = 0.007042443256, Final residual = 1.671668543e-05, No Iterations 1
GAMG:  Solving for Uy, Initial residual = 0.00882267095, Final residual = 2.444545551e-05, No Iterations 1
GAMG:  Solving for p, Initial residual = 0.02626888913, Final residual = 7.291006896e-05, No Iterations 6
time step continuity errors : sum local = 0.0001469875601, global = -1.36435538e-05, cumulative = -2.197318623e-05
GAMG:  Solving for epsilon, Initial residual = 0.0009680433053, Final residual = 4.914008892e-06, No Iterations 1
GAMG:  Solving for k, Initial residual = 0.03609300978, Final residual = 0.0001238356351, No Iterations 1
ExecutionTime = 5.32 s  ClockTime = 5 s

Time = 32

GAMG:  Solving for Ux, Initial residual = 0.006230452439, Final residual = 1.539261547e-05, No Iterations 1
GAMG:  Solving for Uy, Initial residual = 0.008076903585, Final residual = 2.29188314e-05, No Iterations 1
GAMG:  Solving for p, Initial residual = 0.02828690695, Final residual = 0.0001354634519, No Iterations 6
time step continuity errors : sum local = 0.0002437907708, global = -9.86696844e-06, cumulative = -3.184015467e-05
GAMG:  Solving for epsilon, Initial residual = 0.0009328328723, Final residual = 4.642561298e-06, No Iterations 1
GAMG:  Solving for k, Initial residual = 0.03495123241, Final residual = 0.0001174023057, No Iterations 1
ExecutionTime = 5.46 s  ClockTime = 5 s

Time = 33

GAMG:  Solving for Ux, Initial residual = 0.004841743584, Final residual = 1.347792588e-05, No Iterations 1
GAMG:  Solving for Uy, Initial residual = 0.006958845108, Final residual = 2.13280658e-05, No Iterations 1
GAMG:  Solving for p, Initial residual = 0.03719699571, Final residual = 0.0001126511511, No Iterations 7
time step continuity errors : sum local = 0.0001477373294, global = -6.283666368e-06, cumulative = -3.812382104e-05
GAMG:  Solving for epsilon, Initial residual = 0.000899682617, Final residual = 4.493956333e-06, No Iterations 1
GAMG:  Solving for k, Initial residual = 0.03386751892, Final residual = 0.0001117395055, No Iterations 1
ExecutionTime = 5.61 s  ClockTime = 5 s

Time = 34

GAMG:  Solving for Ux, Initial residual = 0.003356572135, Final residual = 1.163153682e-05, No Iterations 1
GAMG:  Solving for Uy, Initial residual = 0.006020408252, Final residual = 2.016328386e-05, No Iterations 1
GAMG:  Solving for p, Initial residual = 0.06559355817, Final residual = 0.0002019568222, No Iterations 7
time step continuity errors : sum local = 0.0001429396717, global = -6.042219961e-06, cumulative = -4.4166041e-05
GAMG:  Solving for epsilon, Initial residual = 0.0008660841015, Final residual = 4.374924813e-06, No Iterations 1
GAMG:  Solving for k, Initial residual = 0.03283427137, Final residual = 0.0001064945884, No Iterations 1
ExecutionTime = 5.75 s  ClockTime = 6 s

Time = 35

GAMG:  Solving for Ux, Initial residual = 0.003329290554, Final residual = 1.038516535e-05, No Iterations 1
GAMG:  Solving for Uy, Initial residual = 0.005672392963, Final residual = 1.95626663e-05, No Iterations 1
GAMG:  Solving for p, Initial residual = 0.06853916483, Final residual = 0.0001832744026, No Iterations 7
time step continuity errors : sum local = 0.0001165616998, global = -4.520235879e-06, cumulative = -4.868627688e-05
GAMG:  Solving for epsilon, Initial residual = 0.0008388128786, Final residual = 4.274696813e-06, No Iterations 1
GAMG:  Solving for k, Initial residual = 0.0318671591, Final residual = 0.0001017627888, No Iterations 1
ExecutionTime = 5.89 s  ClockTime = 6 s

Time = 36

GAMG:  Solving for Ux, Initial residual = 0.004285806702, Final residual = 1.027174601e-05, No Iterations 1
GAMG:  Solving for Uy, Initial residual = 0.005893377002, Final residual = 1.952338447e-05, No Iterations 1
GAMG:  Solving for p, Initial residual = 0.0384753554, Final residual = 6.637383396e-05, No Iterations 7
time step continuity errors : sum local = 7.091499653e-05, global = -2.331111665e-06, cumulative = -5.101738854e-05
GAMG:  Solving for epsilon, Initial residual = 0.0008134876413, Final residual = 4.186787648e-06, No Iterations 1
GAMG:  Solving for k, Initial residual = 0.03097549956, Final residual = 9.732960955e-05, No Iterations 1
ExecutionTime = 6.04 s  ClockTime = 6 s

Time = 37

GAMG:  Solving for Ux, Initial residual = 0.004850493861, Final residual = 1.040479348e-05, No Iterations 1
GAMG:  Solving for Uy, Initial residual = 0.006249079954, Final residual = 1.965056672e-05, No Iterations 1
GAMG:  Solving for p, Initial residual = 0.0297515088, Final residual = 0.0001029596378, No Iterations 5
time step continuity errors : sum local = 0.0001343454516, global = -1.648268932e-05, cumulative = -6.750007786e-05
GAMG:  Solving for epsilon, Initial residual = 0.0007902404116, Final residual = 4.096518429e-06, No Iterations 1
GAMG:  Solving for k, Initial residual = 0.0301491424, Final residual = 9.31992644e-05, No Iterations 1
ExecutionTime = 6.17 s  ClockTime = 6 s

Time = 38

GAMG:  Solving for Ux, Initial residual = 0.004897206363, Final residual = 1.026646941e-05, No Iterations 1
GAMG:  Solving for Uy, Initial residual = 0.006463553173, Final residual = 1.970110057e-05, No Iterations 1
GAMG:  Solving for p, Initial residual = 0.0280977922, Final residual = 7.003398931e-05, No Iterations 6
time step continuity errors : sum local = 9.341659447e-05, global = 5.525133036e-06, cumulative = -6.197494483e-05
GAMG:  Solving for epsilon, Initial residual = 0.0007675079922, Final residual = 4.002325281e-06, No Iterations 1
GAMG:  Solving for k, Initial residual = 0.02937573192, Final residual = 8.939582517e-05, No Iterations 1
ExecutionTime = 6.31 s  ClockTime = 6 s

Time = 39

GAMG:  Solving for Ux, Initial residual = 0.004529759825, Final residual = 9.865784415e-06, No Iterations 1
GAMG:  Solving for Uy, Initial residual = 0.006400375928, Final residual = 1.957988348e-05, No Iterations 1
GAMG:  Solving for p, Initial residual = 0.03022123826, Final residual = 0.0001029213192, No Iterations 6
time step continuity errors : sum local = 0.0001235819561, global = 3.898518881e-06, cumulative = -5.807642595e-05
GAMG:  Solving for epsilon, Initial residual = 0.000747244732, Final residual = 3.894927824e-06, No Iterations 1
GAMG:  Solving for k, Initial residual = 0.02865910364, Final residual = 8.582790559e-05, No Iterations 1
ExecutionTime = 6.45 s  ClockTime = 6 s

Time = 40

GAMG:  Solving for Ux, Initial residual = 0.003907580625, Final residual = 9.420836444e-06, No Iterations 1
GAMG:  Solving for Uy, Initial residual = 0.006135993866, Final residual = 1.9214397e-05, No Iterations 1
GAMG:  Solving for p, Initial residual = 0.0364928143, Final residual = 0.0001305223497, No Iterations 6
time step continuity errors : sum local = 0.0001248232407, global = 5.320237453e-06, cumulative = -5.275618849e-05
GAMG:  Solving for epsilon, Initial residual = 0.0007296914987, Final residual = 3.784542779e-06, No Iterations 1
GAMG:  Solving for k, Initial residual = 0.02797890823, Final residual = 8.254611029e-05, No Iterations 1
ExecutionTime = 6.59 s  ClockTime = 6 s

Time = 41

GAMG:  Solving for Ux, Initial residual = 0.003277844382, Final residual = 9.272928839e-06, No Iterations 1
GAMG:  Solving for Uy, Initial residual = 0.005804404971, Final residual = 1.861727111e-05, No Iterations 1
GAMG:  Solving for p, Initial residual = 0.04981268989, Final residual = 0.0001777185128, No Iterations 6
time step continuity errors : sum local = 0.0001193174896, global = 5.32195376e-06, cumulative = -4.743423473e-05
GAMG:  Solving for epsilon, Initial residual = 0.0007126080669, Final residual = 3.676276174e-06, No Iterations 1
GAMG:  Solving for k, Initial residual = 0.02733589163, Final residual = 7.950099849e-05, No Iterations 1
ExecutionTime = 6.73 s  ClockTime = 6 s

Time = 42

GAMG:  Solving for Ux, Initial residual = 0.002849314571, Final residual = 9.418763504e-06, No Iterations 1
GAMG:  Solving for Uy, Initial residual = 0.005531799114, Final residual = 1.779575876e-05, No Iterations 1
GAMG:  Solving for p, Initial residual = 0.07832054874, Final residual = 0.000238146456, No Iterations 6
time step continuity errors : sum local = 9.739153483e-05, global = 4.15776026e-06, cumulative = -4.327647447e-05
GAMG:  Solving for epsilon, Initial residual = 0.0006950487866, Final residual = 3.578117089e-06, No Iterations 1
GAMG:  Solving for k, Initial residual = 0.02672984624, Final residual = 7.66464815e-05, No Iterations 1
ExecutionTime = 6.87 s  ClockTime = 7 s

Time = 43

GAMG:  Solving for Ux, Initial residual = 0.002869220047, Final residual = 9.538635983e-06, No Iterations 1
GAMG:  Solving for Uy, Initial residual = 0.005315808601, Final residual = 1.672631933e-05, No Iterations 1
GAMG:  Solving for p, Initial residual = 0.06364790944, Final residual = 0.0001959627497, No Iterations 6
time step continuity errors : sum local = 9.448709713e-05, global = 8.681651558e-06, cumulative = -3.459482292e-05
GAMG:  Solving for epsilon, Initial residual = 0.0006774641771, Final residual = 3.483162848e-06, No Iterations 1
GAMG:  Solving for k, Initial residual = 0.0261519804, Final residual = 7.392718331e-05, No Iterations 1
ExecutionTime = 7.01 s  ClockTime = 7 s

Time = 44

GAMG:  Solving for Ux, Initial residual = 0.002937683348, Final residual = 9.49925664e-06, No Iterations 1
GAMG:  Solving for Uy, Initial residual = 0.005078556348, Final residual = 1.548633042e-05, No Iterations 1
GAMG:  Solving for p, Initial residual = 0.0510768154, Final residual = 0.000118788068, No Iterations 5
time step continuity errors : sum local = 6.849182416e-05, global = 2.767883327e-06, cumulative = -3.182693959e-05
GAMG:  Solving for epsilon, Initial residual = 0.0006595762917, Final residual = 3.378137779e-06, No Iterations 1
GAMG:  Solving for k, Initial residual = 0.02558677604, Final residual = 7.130605213e-05, No Iterations 1
ExecutionTime = 7.14 s  ClockTime = 7 s

Time = 45

GAMG:  Solving for Ux, Initial residual = 0.002851480194, Final residual = 9.279246528e-06, No Iterations 1
GAMG:  Solving for Uy, Initial residual = 0.004820996443, Final residual = 1.432968495e-05, No Iterations 1
GAMG:  Solving for p, Initial residual = 0.04839094667, Final residual = 0.0001037556557, No Iterations 6
time step continuity errors : sum local = 6.046477401e-05, global = -1.331418789e-06, cumulative = -3.315835838e-05
GAMG:  Solving for epsilon, Initial residual = 0.0006409397967, Final residual = 3.271814157e-06, No Iterations 1
GAMG:  Solving for k, Initial residual = 0.0250183187, Final residual = 6.880388222e-05, No Iterations 1
ExecutionTime = 7.28 s  ClockTime = 7 s

Time = 46

GAMG:  Solving for Ux, Initial residual = 0.002652479367, Final residual = 8.934096506e-06, No Iterations 1
GAMG:  Solving for Uy, Initial residual = 0.004560032786, Final residual = 1.335106068e-05, No Iterations 1
GAMG:  Solving for p, Initial residual = 0.05185006049, Final residual = 0.0002274266643, No Iterations 6
time step continuity errors : sum local = 0.0001183233947, global = -4.157382033e-06, cumulative = -3.731574041e-05
GAMG:  Solving for epsilon, Initial residual = 0.0006221844213, Final residual = 3.163532026e-06, No Iterations 1
GAMG:  Solving for k, Initial residual = 0.02446754794, Final residual = 6.646068064e-05, No Iterations 1
ExecutionTime = 7.42 s  ClockTime = 7 s

Time = 47

GAMG:  Solving for Ux, Initial residual = 0.002491325758, Final residual = 8.542458864e-06, No Iterations 1
GAMG:  Solving for Uy, Initial residual = 0.004326908856, Final residual = 1.264266775e-05, No Iterations 1
GAMG:  Solving for p, Initial residual = 0.06223356389, Final residual = 0.0002707457921, No Iterations 5
time step continuity errors : sum local = 0.0001120475572, global = -3.516157531e-06, cumulative = -4.083189794e-05
GAMG:  Solving for epsilon, Initial residual = 0.0006036562467, Final residual = 3.055088708e-06, No Iterations 1
GAMG:  Solving for k, Initial residual = 0.0239329878, Final residual = 6.418865185e-05, No Iterations 1
ExecutionTime = 7.56 s  ClockTime = 7 s

Time = 48

GAMG:  Solving for Ux, Initial residual = 0.002561245996, Final residual = 8.179682648e-06, No Iterations 1
GAMG:  Solving for Uy, Initial residual = 0.004211230861, Final residual = 1.233555643e-05, No Iterations 1
GAMG:  Solving for p, Initial residual = 0.0657516303, Final residual = 0.0002695298063, No Iterations 5
time step continuity errors : sum local = 0.0001006900504, global = -2.690041309e-06, cumulative = -4.352193925e-05
GAMG:  Solving for epsilon, Initial residual = 0.0005864315055, Final residual = 2.945906195e-06, No Iterations 1
GAMG:  Solving for k, Initial residual = 0.0234186058, Final residual = 6.199446962e-05, No Iterations 1
ExecutionTime = 7.69 s  ClockTime = 7 s

Time = 49

GAMG:  Solving for Ux, Initial residual = 0.002690196451, Final residual = 7.894146112e-06, No Iterations 1
GAMG:  Solving for Uy, Initial residual = 0.004224280573, Final residual = 1.224693055e-05, No Iterations 1
GAMG:  Solving for p, Initial residual = 0.04941430777, Final residual = 0.0001735161394, No Iterations 6
time step continuity errors : sum local = 8.266710662e-05, global = -7.700738794e-07, cumulative = -4.429201313e-05
GAMG:  Solving for epsilon, Initial residual = 0.0005705224124, Final residual = 2.83618199e-06, No Iterations 1
GAMG:  Solving for k, Initial residual = 0.02292668781, Final residual = 5.98757518e-05, No Iterations 1
ExecutionTime = 7.82 s  ClockTime = 8 s

Time = 50

GAMG:  Solving for Ux, Initial residual = 0.002791549857, Final residual = 7.687640046e-06, No Iterations 1
GAMG:  Solving for Uy, Initial residual = 0.004252634083, Final residual = 1.221803498e-05, No Iterations 1
GAMG:  Solving for p, Initial residual = 0.04120512022, Final residual = 6.316083063e-05, No Iterations 6
time step continuity errors : sum local = 3.463322606e-05, global = -9.313216744e-07, cumulative = -4.522333481e-05
GAMG:  Solving for epsilon, Initial residual = 0.0005549265874, Final residual = 2.725020369e-06, No Iterations 1
GAMG:  Solving for k, Initial residual = 0.02245758401, Final residual = 5.787387801e-05, No Iterations 1
ExecutionTime = 7.96 s  ClockTime = 8 s

Time = 51

GAMG:  Solving for Ux, Initial residual = 0.002826786906, Final residual = 7.538307861e-06, No Iterations 1
GAMG:  Solving for Uy, Initial residual = 0.004265574711, Final residual = 1.22101551e-05, No Iterations 1
GAMG:  Solving for p, Initial residual = 0.03744520875, Final residual = 8.509438357e-05, No Iterations 5
time step continuity errors : sum local = 4.928265368e-05, global = 4.783532977e-06, cumulative = -4.043980183e-05
GAMG:  Solving for epsilon, Initial residual = 0.0005391774723, Final residual = 2.613121112e-06, No Iterations 1
GAMG:  Solving for k, Initial residual = 0.02201043956, Final residual = 5.597365009e-05, No Iterations 1
ExecutionTime = 8.1 s  ClockTime = 8 s

Time = 52

GAMG:  Solving for Ux, Initial residual = 0.002794173309, Final residual = 7.419420464e-06, No Iterations 1
GAMG:  Solving for Uy, Initial residual = 0.004234247744, Final residual = 1.21499323e-05, No Iterations 1
GAMG:  Solving for p, Initial residual = 0.03665596909, Final residual = 6.590850549e-05, No Iterations 6
time step continuity errors : sum local = 3.769656662e-05, global = 1.659950002e-06, cumulative = -3.877985183e-05
GAMG:  Solving for epsilon, Initial residual = 0.0005230708575, Final residual = 2.501091256e-06, No Iterations 1
GAMG:  Solving for k, Initial residual = 0.02158118241, Final residual = 5.415697821e-05, No Iterations 1
ExecutionTime = 8.23 s  ClockTime = 8 s

Time = 53

GAMG:  Solving for Ux, Initial residual = 0.002705420241, Final residual = 7.332248507e-06, No Iterations 1
GAMG:  Solving for Uy, Initial residual = 0.004158285848, Final residual = 1.202734211e-05, No Iterations 1
GAMG:  Solving for p, Initial residual = 0.03819485973, Final residual = 9.984582016e-05, No Iterations 6
time step continuity errors : sum local = 5.313988757e-05, global = 4.032288516e-06, cumulative = -3.474756331e-05
GAMG:  Solving for epsilon, Initial residual = 0.0005070437807, Final residual = 2.39023094e-06, No Iterations 1
GAMG:  Solving for k, Initial residual = 0.02116775413, Final residual = 5.24339548e-05, No Iterations 1
ExecutionTime = 8.38 s  ClockTime = 8 s

Time = 54

GAMG:  Solving for Ux, Initial residual = 0.002592011484, Final residual = 7.273945048e-06, No Iterations 1
GAMG:  Solving for Uy, Initial residual = 0.004055744852, Final residual = 1.180127883e-05, No Iterations 1
GAMG:  Solving for p, Initial residual = 0.04155245336, Final residual = 0.0001711388942, No Iterations 6
time step continuity errors : sum local = 8.123081065e-05, global = 3.580094226e-06, cumulative = -3.116746908e-05
GAMG:  Solving for epsilon, Initial residual = 0.0004911950694, Final residual = 2.281654532e-06, No Iterations 1
GAMG:  Solving for k, Initial residual = 0.02076833941, Final residual = 5.079581389e-05, No Iterations 1
ExecutionTime = 8.52 s  ClockTime = 8 s

Time = 55

GAMG:  Solving for Ux, Initial residual = 0.002477747298, Final residual = 7.235084775e-06, No Iterations 1
GAMG:  Solving for Uy, Initial residual = 0.003946315011, Final residual = 1.145197613e-05, No Iterations 1
GAMG:  Solving for p, Initial residual = 0.04651300873, Final residual = 0.0001787382735, No Iterations 6
time step continuity errors : sum local = 7.363482927e-05, global = 2.787345023e-06, cumulative = -2.838012406e-05
GAMG:  Solving for epsilon, Initial residual = 0.000475482707, Final residual = 2.176577164e-06, No Iterations 1
GAMG:  Solving for k, Initial residual = 0.02038214964, Final residual = 4.923522684e-05, No Iterations 1
ExecutionTime = 8.66 s  ClockTime = 8 s

Time = 56

GAMG:  Solving for Ux, Initial residual = 0.002382151355, Final residual = 7.198745921e-06, No Iterations 1
GAMG:  Solving for Uy, Initial residual = 0.003836366083, Final residual = 1.097367707e-05, No Iterations 1
GAMG:  Solving for p, Initial residual = 0.05233555363, Final residual = 9.236377054e-05, No Iterations 6
time step continuity errors : sum local = 3.28979335e-05, global = 1.957478197e-06, cumulative = -2.642264586e-05
GAMG:  Solving for epsilon, Initial residual = 0.0004601445056, Final residual = 2.076377675e-06, No Iterations 1
GAMG:  Solving for k, Initial residual = 0.02000569939, Final residual = 4.772279083e-05, No Iterations 1
ExecutionTime = 8.79 s  ClockTime = 9 s

Time = 57

GAMG:  Solving for Ux, Initial residual = 0.002311371825, Final residual = 7.152045329e-06, No Iterations 1
GAMG:  Solving for Uy, Initial residual = 0.003727042441, Final residual = 1.043378865e-05, No Iterations 1
GAMG:  Solving for p, Initial residual = 0.05751331477, Final residual = 8.473249437e-05, No Iterations 6
time step continuity errors : sum local = 2.672953244e-05, global = 1.191635011e-06, cumulative = -2.523101085e-05
GAMG:  Solving for epsilon, Initial residual = 0.0004453864883, Final residual = 1.980602878e-06, No Iterations 1
GAMG:  Solving for k, Initial residual = 0.01964196758, Final residual = 4.626797578e-05, No Iterations 1
ExecutionTime = 8.93 s  ClockTime = 9 s

Time = 58

GAMG:  Solving for Ux, Initial residual = 0.00226357076, Final residual = 7.090012304e-06, No Iterations 1
GAMG:  Solving for Uy, Initial residual = 0.003628898332, Final residual = 9.964008252e-06, No Iterations 1
GAMG:  Solving for p, Initial residual = 0.05516875754, Final residual = 0.0001457769138, No Iterations 5
time step continuity errors : sum local = 4.660734633e-05, global = -1.569175109e-06, cumulative = -2.680018596e-05
GAMG:  Solving for epsilon, Initial residual = 0.0004313784653, Final residual = 1.891283462e-06, No Iterations 1
GAMG:  Solving for k, Initial residual = 0.01929148077, Final residual = 4.487416548e-05, No Iterations 1
ExecutionTime = 9.07 s  ClockTime = 9 s

Time = 59

GAMG:  Solving for Ux, Initial residual = 0.002236601537, Final residual = 7.003562497e-06, No Iterations 1
GAMG:  Solving for Uy, Initial residual = 0.003552214404, Final residual = 9.658667833e-06, No Iterations 1
GAMG:  Solving for p, Initial residual = 0.05368463805, Final residual = 0.0002510807288, No Iterations 5
time step continuity errors : sum local = 7.997572215e-05, global = -2.572050351e-06, cumulative = -2.937223631e-05
GAMG:  Solving for epsilon, Initial residual = 0.0004181361302, Final residual = 1.808589867e-06, No Iterations 1
GAMG:  Solving for k, Initial residual = 0.01895200906, Final residual = 4.352811247e-05, No Iterations 1
ExecutionTime = 9.2 s  ClockTime = 9 s

Time = 60

GAMG:  Solving for Ux, Initial residual = 0.002224035027, Final residual = 6.903849363e-06, No Iterations 1
GAMG:  Solving for Uy, Initial residual = 0.003506407908, Final residual = 9.506610352e-06, No Iterations 1
GAMG:  Solving for p, Initial residual = 0.05427211381, Final residual = 8.006362917e-05, No Iterations 6
time step continuity errors : sum local = 2.441880793e-05, global = -6.273201633e-07, cumulative = -2.999955648e-05
GAMG:  Solving for epsilon, Initial residual = 0.0004056964065, Final residual = 1.732444e-06, No Iterations 1
GAMG:  Solving for k, Initial residual = 0.01862359429, Final residual = 4.224109549e-05, No Iterations 1
ExecutionTime = 9.34 s  ClockTime = 9 s

Time = 61

GAMG:  Solving for Ux, Initial residual = 0.002225124601, Final residual = 6.794437135e-06, No Iterations 1
GAMG:  Solving for Uy, Initial residual = 0.003493910686, Final residual = 9.449577919e-06, No Iterations 1
GAMG:  Solving for p, Initial residual = 0.05091536918, Final residual = 8.524415363e-05, No Iterations 6
time step continuity errors : sum local = 2.685036539e-05, global = -7.497112695e-07, cumulative = -3.074926775e-05
GAMG:  Solving for epsilon, Initial residual = 0.0003938244317, Final residual = 1.662985836e-06, No Iterations 1
GAMG:  Solving for k, Initial residual = 0.01830611097, Final residual = 4.101642237e-05, No Iterations 1
ExecutionTime = 9.47 s  ClockTime = 9 s

Time = 62

GAMG:  Solving for Ux, Initial residual = 0.002231299838, Final residual = 6.686020982e-06, No Iterations 1
GAMG:  Solving for Uy, Initial residual = 0.003495071262, Final residual = 9.440520388e-06, No Iterations 1
GAMG:  Solving for p, Initial residual = 0.04654015581, Final residual = 0.0002323009539, No Iterations 5
time step continuity errors : sum local = 7.756601243e-05, global = 4.735236421e-08, cumulative = -3.070191538e-05
GAMG:  Solving for epsilon, Initial residual = 0.0003826058095, Final residual = 1.599232204e-06, No Iterations 1
GAMG:  Solving for k, Initial residual = 0.01799900731, Final residual = 3.983886378e-05, No Iterations 1
ExecutionTime = 9.61 s  ClockTime = 9 s

Time = 63

GAMG:  Solving for Ux, Initial residual = 0.002234581083, Final residual = 6.584905307e-06, No Iterations 1
GAMG:  Solving for Uy, Initial residual = 0.003495462643, Final residual = 9.450569367e-06, No Iterations 1
GAMG:  Solving for p, Initial residual = 0.04302548615, Final residual = 9.670930631e-05, No Iterations 6
time step continuity errors : sum local = 3.376785533e-05, global = -1.334727632e-06, cumulative = -3.203664301e-05
GAMG:  Solving for epsilon, Initial residual = 0.0003723158453, Final residual = 1.540539799e-06, No Iterations 1
GAMG:  Solving for k, Initial residual = 0.01770138544, Final residual = 3.870765841e-05, No Iterations 1
ExecutionTime = 9.75 s  ClockTime = 10 s

Time = 64

GAMG:  Solving for Ux, Initial residual = 0.002229302017, Final residual = 6.494157841e-06, No Iterations 1
GAMG:  Solving for Uy, Initial residual = 0.003480165195, Final residual = 9.461971058e-06, No Iterations 1
GAMG:  Solving for p, Initial residual = 0.0406319065, Final residual = 8.844648271e-05, No Iterations 5
time step continuity errors : sum local = 3.160862737e-05, global = -2.832764628e-06, cumulative = -3.486940764e-05
GAMG:  Solving for epsilon, Initial residual = 0.0003635803649, Final residual = 1.485780795e-06, No Iterations 1
GAMG:  Solving for k, Initial residual = 0.01741084838, Final residual = 3.762304707e-05, No Iterations 1
ExecutionTime = 9.88 s  ClockTime = 10 s

Time = 65

GAMG:  Solving for Ux, Initial residual = 0.002213264, Final residual = 6.413527841e-06, No Iterations 1
GAMG:  Solving for Uy, Initial residual = 0.003450123126, Final residual = 9.435063962e-06, No Iterations 1
GAMG:  Solving for p, Initial residual = 0.03936390532, Final residual = 8.165264016e-05, No Iterations 5
time step continuity errors : sum local = 2.916829789e-05, global = 1.702826581e-06, cumulative = -3.316658106e-05
GAMG:  Solving for epsilon, Initial residual = 0.0003554128138, Final residual = 1.434955881e-06, No Iterations 1
GAMG:  Solving for k, Initial residual = 0.0171288367, Final residual = 3.658444826e-05, No Iterations 1
ExecutionTime = 10.01 s  ClockTime = 10 s

Time = 66

GAMG:  Solving for Ux, Initial residual = 0.00218884665, Final residual = 6.342250507e-06, No Iterations 1
GAMG:  Solving for Uy, Initial residual = 0.003404117526, Final residual = 9.339827435e-06, No Iterations 1
GAMG:  Solving for p, Initial residual = 0.03883489481, Final residual = 4.796100258e-05, No Iterations 6
time step continuity errors : sum local = 1.68129401e-05, global = 1.11662045e-06, cumulative = -3.204996061e-05
GAMG:  Solving for epsilon, Initial residual = 0.000347794878, Final residual = 1.389746116e-06, No Iterations 1
GAMG:  Solving for k, Initial residual = 0.0168559494, Final residual = 3.558858728e-05, No Iterations 1
ExecutionTime = 10.15 s  ClockTime = 10 s

Time = 67

GAMG:  Solving for Ux, Initial residual = 0.0021561897, Final residual = 6.284416049e-06, No Iterations 1
GAMG:  Solving for Uy, Initial residual = 0.003346195053, Final residual = 9.167552771e-06, No Iterations 1
GAMG:  Solving for p, Initial residual = 0.0389902896, Final residual = 5.117997165e-05, No Iterations 6
time step continuity errors : sum local = 1.727882264e-05, global = 7.873382818e-07, cumulative = -3.126262233e-05
GAMG:  Solving for epsilon, Initial residual = 0.0003404382085, Final residual = 1.350077045e-06, No Iterations 1
GAMG:  Solving for k, Initial residual = 0.01658960179, Final residual = 3.463391297e-05, No Iterations 1
ExecutionTime = 10.29 s  ClockTime = 10 s

Time = 68

GAMG:  Solving for Ux, Initial residual = 0.002119707265, Final residual = 6.23537624e-06, No Iterations 1
GAMG:  Solving for Uy, Initial residual = 0.003282401636, Final residual = 8.928966189e-06, No Iterations 1
GAMG:  Solving for p, Initial residual = 0.0395910289, Final residual = 5.272841162e-05, No Iterations 6
time step continuity errors : sum local = 1.69400281e-05, global = 6.566457465e-07, cumulative = -3.060597658e-05
GAMG:  Solving for epsilon, Initial residual = 0.00033338594, Final residual = 1.314306696e-06, No Iterations 1
GAMG:  Solving for k, Initial residual = 0.01633189948, Final residual = 3.372260968e-05, No Iterations 1
ExecutionTime = 10.43 s  ClockTime = 10 s

Time = 69

GAMG:  Solving for Ux, Initial residual = 0.002083192744, Final residual = 6.190744612e-06, No Iterations 1
GAMG:  Solving for Uy, Initial residual = 0.003217805622, Final residual = 8.659028896e-06, No Iterations 1
GAMG:  Solving for p, Initial residual = 0.040370767, Final residual = 5.529657754e-05, No Iterations 6
time step continuity errors : sum local = 1.683363651e-05, global = 6.02595439e-07, cumulative = -3.000338114e-05
GAMG:  Solving for epsilon, Initial residual = 0.0003266363665, Final residual = 1.282052528e-06, No Iterations 1
GAMG:  Solving for k, Initial residual = 0.01608270927, Final residual = 3.284853713e-05, No Iterations 1
ExecutionTime = 10.57 s  ClockTime = 10 s

Time = 70

GAMG:  Solving for Ux, Initial residual = 0.002049907826, Final residual = 6.147089059e-06, No Iterations 1
GAMG:  Solving for Uy, Initial residual = 0.003156383533, Final residual = 8.401258266e-06, No Iterations 1
GAMG:  Solving for p, Initial residual = 0.04098440988, Final residual = 6.098485462e-05, No Iterations 6
time step continuity errors : sum local = 1.765450988e-05, global = 7.027802151e-07, cumulative = -2.930060093e-05
GAMG:  Solving for epsilon, Initial residual = 0.0003201896023, Final residual = 1.252848577e-06, No Iterations 1
GAMG:  Solving for k, Initial residual = 0.01584126423, Final residual = 3.201048206e-05, No Iterations 1
ExecutionTime = 10.71 s  ClockTime = 10 s

Time = 71

GAMG:  Solving for Ux, Initial residual = 0.002021382681, Final residual = 6.101828778e-06, No Iterations 1
GAMG:  Solving for Uy, Initial residual = 0.003101995507, Final residual = 8.191012959e-06, No Iterations 1
GAMG:  Solving for p, Initial residual = 0.04119481886, Final residual = 0.0001489189157, No Iterations 5
time step continuity errors : sum local = 4.143001841e-05, global = 1.418038405e-06, cumulative = -2.788256252e-05
GAMG:  Solving for epsilon, Initial residual = 0.0003140510932, Final residual = 1.225991868e-06, No Iterations 1
GAMG:  Solving for k, Initial residual = 0.01560442541, Final residual = 3.12076216e-05, No Iterations 1
ExecutionTime = 10.84 s  ClockTime = 11 s

Time = 72

GAMG:  Solving for Ux, Initial residual = 0.001998822207, Final residual = 6.052304193e-06, No Iterations 1
GAMG:  Solving for Uy, Initial residual = 0.003057979417, Final residual = 8.046612682e-06, No Iterations 1
GAMG:  Solving for p, Initial residual = 0.03929808709, Final residual = 0.0001109060931, No Iterations 5
time step continuity errors : sum local = 3.124297004e-05, global = 4.800948722e-07, cumulative = -2.740246765e-05
GAMG:  Solving for epsilon, Initial residual = 0.0003082165914, Final residual = 1.201156347e-06, No Iterations 1
GAMG:  Solving for k, Initial residual = 0.01537318314, Final residual = 3.043761453e-05, No Iterations 1
ExecutionTime = 10.97 s  ClockTime = 11 s

Time = 73

GAMG:  Solving for Ux, Initial residual = 0.001980321385, Final residual = 6.002081889e-06, No Iterations 1
GAMG:  Solving for Uy, Initial residual = 0.003023545954, Final residual = 7.958483966e-06, No Iterations 1
GAMG:  Solving for p, Initial residual = 0.03791576115, Final residual = 0.000129107906, No Iterations 5
time step continuity errors : sum local = 3.641485294e-05, global = -1.227695904e-06, cumulative = -2.863016355e-05
GAMG:  Solving for epsilon, Initial residual = 0.0003026580751, Final residual = 1.178049298e-06, No Iterations 1
GAMG:  Solving for k, Initial residual = 0.01514618579, Final residual = 2.969229792e-05, No Iterations 1
ExecutionTime = 11.11 s  ClockTime = 11 s

Time = 74

GAMG:  Solving for Ux, Initial residual = 0.001964254969, Final residual = 5.950282208e-06, No Iterations 1
GAMG:  Solving for Uy, Initial residual = 0.002995545588, Final residual = 7.913631495e-06, No Iterations 1
GAMG:  Solving for p, Initial residual = 0.03676285746, Final residual = 0.0001341531217, No Iterations 5
time step continuity errors : sum local = 3.760678475e-05, global = -1.79462363e-06, cumulative = -3.042478719e-05
GAMG:  Solving for epsilon, Initial residual = 0.0002974611417, Final residual = 1.15601343e-06, No Iterations 1
GAMG:  Solving for k, Initial residual = 0.01492433869, Final residual = 2.897431406e-05, No Iterations 1
ExecutionTime = 11.24 s  ClockTime = 11 s

Time = 75

GAMG:  Solving for Ux, Initial residual = 0.001949752306, Final residual = 5.896743699e-06, No Iterations 1
GAMG:  Solving for Uy, Initial residual = 0.002968973541, Final residual = 7.894692519e-06, No Iterations 1
GAMG:  Solving for p, Initial residual = 0.03566932437, Final residual = 0.0001125660329, No Iterations 5
time step continuity errors : sum local = 3.122330727e-05, global = -2.019220293e-06, cumulative = -3.244400748e-05
GAMG:  Solving for epsilon, Initial residual = 0.0002925239955, Final residual = 1.134662586e-06, No Iterations 1
GAMG:  Solving for k, Initial residual = 0.01470826311, Final residual = 2.828390386e-05, No Iterations 1
ExecutionTime = 11.37 s  ClockTime = 11 s

Time = 76

GAMG:  Solving for Ux, Initial residual = 0.001935777307, Final residual = 5.842764776e-06, No Iterations 1
GAMG:  Solving for Uy, Initial residual = 0.002940573611, Final residual = 7.874998686e-06, No Iterations 1
GAMG:  Solving for p, Initial residual = 0.03458297181, Final residual = 7.699165648e-05, No Iterations 5
time step continuity errors : sum local = 2.11049612e-05, global = -1.726972344e-06, cumulative = -3.417097982e-05
GAMG:  Solving for epsilon, Initial residual = 0.0002877866378, Final residual = 1.114289047e-06, No Iterations 1
GAMG:  Solving for k, Initial residual = 0.01449721088, Final residual = 2.762207844e-05, No Iterations 1
ExecutionTime = 11.5 s  ClockTime = 11 s

Time = 77

GAMG:  Solving for Ux, Initial residual = 0.001921365729, Final residual = 5.788722854e-06, No Iterations 1
GAMG:  Solving for Uy, Initial residual = 0.002908449761, Final residual = 7.822987804e-06, No Iterations 1
GAMG:  Solving for p, Initial residual = 0.03344595477, Final residual = 6.773314784e-05, No Iterations 5
time step continuity errors : sum local = 1.837855764e-05, global = -8.239974223e-07, cumulative = -3.499497724e-05
GAMG:  Solving for epsilon, Initial residual = 0.0002831989628, Final residual = 1.094995523e-06, No Iterations 1
GAMG:  Solving for k, Initial residual = 0.01428883965, Final residual = 2.698035576e-05, No Iterations 1
ExecutionTime = 11.64 s  ClockTime = 11 s

Time = 78

GAMG:  Solving for Ux, Initial residual = 0.001905892329, Final residual = 5.736481232e-06, No Iterations 1
GAMG:  Solving for Uy, Initial residual = 0.002872622927, Final residual = 7.729544862e-06, No Iterations 1
GAMG:  Solving for p, Initial residual = 0.03221466325, Final residual = 6.511370646e-05, No Iterations 5
time step continuity errors : sum local = 1.75608211e-05, global = 5.856193813e-07, cumulative = -3.440935786e-05
GAMG:  Solving for epsilon, Initial residual = 0.0002786850663, Final residual = 1.076249266e-06, No Iterations 1
GAMG:  Solving for k, Initial residual = 0.01408384288, Final residual = 2.635646634e-05, No Iterations 1
ExecutionTime = 11.77 s  ClockTime = 12 s

Time = 79

GAMG:  Solving for Ux, Initial residual = 0.001889194563, Final residual = 5.686275167e-06, No Iterations 1
GAMG:  Solving for Uy, Initial residual = 0.002834251519, Final residual = 7.60201289e-06, No Iterations 1
GAMG:  Solving for p, Initial residual = 0.03089944935, Final residual = 7.171962747e-05, No Iterations 5
time step continuity errors : sum local = 1.932267692e-05, global = 9.391059413e-07, cumulative = -3.347025192e-05
GAMG:  Solving for epsilon, Initial residual = 0.0002743282116, Final residual = 1.058050535e-06, No Iterations 1
GAMG:  Solving for k, Initial residual = 0.0138833561, Final residual = 2.575125271e-05, No Iterations 1
ExecutionTime = 11.9 s  ClockTime = 12 s

Time = 80

GAMG:  Solving for Ux, Initial residual = 0.001870922813, Final residual = 5.639112298e-06, No Iterations 1
GAMG:  Solving for Uy, Initial residual = 0.002791162908, Final residual = 7.444937708e-06, No Iterations 1
GAMG:  Solving for p, Initial residual = 0.02945707543, Final residual = 0.0001238373671, No Iterations 5
time step continuity errors : sum local = 3.354270074e-05, global = 1.322271203e-06, cumulative = -3.214798072e-05
GAMG:  Solving for epsilon, Initial residual = 0.0002701988827, Final residual = 1.040632698e-06, No Iterations 1
GAMG:  Solving for k, Initial residual = 0.01368954905, Final residual = 2.516942045e-05, No Iterations 1
ExecutionTime = 12.03 s  ClockTime = 12 s

Time = 81

GAMG:  Solving for Ux, Initial residual = 0.00185160856, Final residual = 5.593909135e-06, No Iterations 1
GAMG:  Solving for Uy, Initial residual = 0.002744473347, Final residual = 7.268632043e-06, No Iterations 1
GAMG:  Solving for p, Initial residual = 0.02797042656, Final residual = 4.620470187e-05, No Iterations 6
time step continuity errors : sum local = 1.26425888e-05, global = 1.033164413e-06, cumulative = -3.111481631e-05
GAMG:  Solving for epsilon, Initial residual = 0.0002662295486, Final residual = 1.024109827e-06, No Iterations 1
GAMG:  Solving for k, Initial residual = 0.01349981046, Final residual = 2.460693204e-05, No Iterations 1
ExecutionTime = 12.17 s  ClockTime = 12 s

Time = 82

GAMG:  Solving for Ux, Initial residual = 0.001831518349, Final residual = 5.550814944e-06, No Iterations 1
GAMG:  Solving for Uy, Initial residual = 0.002696567665, Final residual = 7.092737978e-06, No Iterations 1
GAMG:  Solving for p, Initial residual = 0.02645496148, Final residual = 4.556912937e-05, No Iterations 6
time step continuity errors : sum local = 1.264113056e-05, global = 9.310926562e-07, cumulative = -3.018372365e-05
GAMG:  Solving for epsilon, Initial residual = 0.0002624073734, Final residual = 1.008272331e-06, No Iterations 1
GAMG:  Solving for k, Initial residual = 0.01331100919, Final residual = 2.406070218e-05, No Iterations 1
ExecutionTime = 12.31 s  ClockTime = 12 s

Time = 83

GAMG:  Solving for Ux, Initial residual = 0.001811523624, Final residual = 5.509174429e-06, No Iterations 1
GAMG:  Solving for Uy, Initial residual = 0.002649464718, Final residual = 6.937880007e-06, No Iterations 1
GAMG:  Solving for p, Initial residual = 0.02502182887, Final residual = 4.44993801e-05, No Iterations 6
time step continuity errors : sum local = 1.252249585e-05, global = 1.023639364e-06, cumulative = -2.916008429e-05
GAMG:  Solving for epsilon, Initial residual = 0.0002587454285, Final residual = 9.930704367e-07, No Iterations 1
GAMG:  Solving for k, Initial residual = 0.01312486962, Final residual = 2.353288477e-05, No Iterations 1
ExecutionTime = 12.45 s  ClockTime = 12 s

Time = 84

GAMG:  Solving for Ux, Initial residual = 0.001792282548, Final residual = 5.467724348e-06, No Iterations 1
GAMG:  Solving for Uy, Initial residual = 0.002604010438, Final residual = 6.808098422e-06, No Iterations 1
GAMG:  Solving for p, Initial residual = 0.02371233837, Final residual = 0.000113248385, No Iterations 5
time step continuity errors : sum local = 3.227914058e-05, global = 1.095169914e-06, cumulative = -2.806491437e-05
GAMG:  Solving for epsilon, Initial residual = 0.0002552443509, Final residual = 9.785311864e-07, No Iterations 1
GAMG:  Solving for k, Initial residual = 0.01294232624, Final residual = 2.302520957e-05, No Iterations 1
ExecutionTime = 12.58 s  ClockTime = 12 s

Time = 85

GAMG:  Solving for Ux, Initial residual = 0.001774199746, Final residual = 5.426622243e-06, No Iterations 1
GAMG:  Solving for Uy, Initial residual = 0.002560829395, Final residual = 6.699846529e-06, No Iterations 1
GAMG:  Solving for p, Initial residual = 0.02254873646, Final residual = 8.439757711e-05, No Iterations 5
time step continuity errors : sum local = 2.42945792e-05, global = 9.072385299e-07, cumulative = -2.715767584e-05
GAMG:  Solving for epsilon, Initial residual = 0.0002518103438, Final residual = 9.643670942e-07, No Iterations 1
GAMG:  Solving for k, Initial residual = 0.01276098186, Final residual = 2.253656817e-05, No Iterations 1
ExecutionTime = 12.71 s  ClockTime = 12 s

Time = 86

GAMG:  Solving for Ux, Initial residual = 0.001757087182, Final residual = 5.384821666e-06, No Iterations 1
GAMG:  Solving for Uy, Initial residual = 0.002519797294, Final residual = 6.622770206e-06, No Iterations 1
GAMG:  Solving for p, Initial residual = 0.02160443725, Final residual = 7.08060815e-05, No Iterations 5
time step continuity errors : sum local = 2.052897663e-05, global = 8.160370502e-07, cumulative = -2.634163879e-05
GAMG:  Solving for epsilon, Initial residual = 0.000248417881, Final residual = 9.504473122e-07, No Iterations 1
GAMG:  Solving for k, Initial residual = 0.01257991694, Final residual = 2.20599722e-05, No Iterations 1
ExecutionTime = 12.85 s  ClockTime = 13 s

Time = 87

GAMG:  Solving for Ux, Initial residual = 0.001740778418, Final residual = 5.341759982e-06, No Iterations 1
GAMG:  Solving for Uy, Initial residual = 0.002479875046, Final residual = 6.568434e-06, No Iterations 1
GAMG:  Solving for p, Initial residual = 0.02079464078, Final residual = 6.61613027e-05, No Iterations 5
time step continuity errors : sum local = 1.927747623e-05, global = 6.917195919e-07, cumulative = -2.56499192e-05
GAMG:  Solving for epsilon, Initial residual = 0.0002451325189, Final residual = 9.368716618e-07, No Iterations 1
GAMG:  Solving for k, Initial residual = 0.01240120382, Final residual = 2.160169475e-05, No Iterations 1
ExecutionTime = 12.98 s  ClockTime = 13 s

Time = 88

GAMG:  Solving for Ux, Initial residual = 0.001725115679, Final residual = 5.297361199e-06, No Iterations 1
GAMG:  Solving for Uy, Initial residual = 0.002440559079, Final residual = 6.5095068e-06, No Iterations 1
GAMG:  Solving for p, Initial residual = 0.02004488754, Final residual = 6.452660322e-05, No Iterations 5
time step continuity errors : sum local = 1.886389426e-05, global = 5.596414016e-07, cumulative = -2.50902778e-05
GAMG:  Solving for epsilon, Initial residual = 0.0002419545281, Final residual = 9.235127556e-07, No Iterations 1
GAMG:  Solving for k, Initial residual = 0.01222262327, Final residual = 2.115705849e-05, No Iterations 1
ExecutionTime = 13.11 s  ClockTime = 13 s

Time = 89

GAMG:  Solving for Ux, Initial residual = 0.001709915987, Final residual = 5.252640651e-06, No Iterations 1
GAMG:  Solving for Uy, Initial residual = 0.002400965353, Final residual = 6.440254877e-06, No Iterations 1
GAMG:  Solving for p, Initial residual = 0.01945990933, Final residual = 6.3300876e-05, No Iterations 5
time step continuity errors : sum local = 1.855284226e-05, global = 5.198096766e-07, cumulative = -2.457046812e-05
GAMG:  Solving for epsilon, Initial residual = 0.0002388991846, Final residual = 9.101337959e-07, No Iterations 1
GAMG:  Solving for k, Initial residual = 0.01204296955, Final residual = 2.072029727e-05, No Iterations 1
ExecutionTime = 13.25 s  ClockTime = 13 s

Time = 90

GAMG:  Solving for Ux, Initial residual = 0.001694912535, Final residual = 5.208009283e-06, No Iterations 1
GAMG:  Solving for Uy, Initial residual = 0.002362287877, Final residual = 6.353362649e-06, No Iterations 1
GAMG:  Solving for p, Initial residual = 0.01889194109, Final residual = 6.257448368e-05, No Iterations 5
time step continuity errors : sum local = 1.838649386e-05, global = 5.560044916e-07, cumulative = -2.401446363e-05
GAMG:  Solving for epsilon, Initial residual = 0.0002358815373, Final residual = 8.968051431e-07, No Iterations 1
GAMG:  Solving for k, Initial residual = 0.01186227803, Final residual = 2.029535399e-05, No Iterations 1
ExecutionTime = 13.38 s  ClockTime = 13 s

Time = 91

GAMG:  Solving for Ux, Initial residual = 0.001679890508, Final residual = 5.164276274e-06, No Iterations 1
GAMG:  Solving for Uy, Initial residual = 0.002323994104, Final residual = 6.249156997e-06, No Iterations 1
GAMG:  Solving for p, Initial residual = 0.01832322978, Final residual = 6.399289127e-05, No Iterations 5
time step continuity errors : sum local = 1.886177766e-05, global = 6.159337104e-07, cumulative = -2.339852992e-05
GAMG:  Solving for epsilon, Initial residual = 0.0002329044759, Final residual = 8.835597378e-07, No Iterations 1
GAMG:  Solving for k, Initial residual = 0.01168184796, Final residual = 1.988224012e-05, No Iterations 1
ExecutionTime = 13.51 s  ClockTime = 13 s

Time = 92

GAMG:  Solving for Ux, Initial residual = 0.001664754203, Final residual = 5.121422744e-06, No Iterations 1
GAMG:  Solving for Uy, Initial residual = 0.002283896025, Final residual = 6.131214603e-06, No Iterations 1
GAMG:  Solving for p, Initial residual = 0.01777932264, Final residual = 6.926244543e-05, No Iterations 5
time step continuity errors : sum local = 2.049811563e-05, global = 6.904158754e-07, cumulative = -2.270811404e-05
GAMG:  Solving for epsilon, Initial residual = 0.0002299792913, Final residual = 8.705576145e-07, No Iterations 1
GAMG:  Solving for k, Initial residual = 0.01150157122, Final residual = 1.948158616e-05, No Iterations 1
ExecutionTime = 13.64 s  ClockTime = 13 s

Time = 93

GAMG:  Solving for Ux, Initial residual = 0.001649506545, Final residual = 5.079424537e-06, No Iterations 1
GAMG:  Solving for Uy, Initial residual = 0.002241978843, Final residual = 6.001793633e-06, No Iterations 1
GAMG:  Solving for p, Initial residual = 0.01722425738, Final residual = 7.850538415e-05, No Iterations 5
time step continuity errors : sum local = 2.335323973e-05, global = 7.706780634e-07, cumulative = -2.193743598e-05
GAMG:  Solving for epsilon, Initial residual = 0.0002270737631, Final residual = 8.577479057e-07, No Iterations 1
GAMG:  Solving for k, Initial residual = 0.01132423458, Final residual = 1.909581914e-05, No Iterations 1
ExecutionTime = 13.77 s  ClockTime = 14 s

Time = 94

GAMG:  Solving for Ux, Initial residual = 0.001634190894, Final residual = 5.038041339e-06, No Iterations 1
GAMG:  Solving for Uy, Initial residual = 0.002199020303, Final residual = 5.867685612e-06, No Iterations 1
GAMG:  Solving for p, Initial residual = 0.01666326889, Final residual = 3.167862038e-05, No Iterations 6
time step continuity errors : sum local = 9.481465875e-06, global = 7.023523246e-07, cumulative = -2.123508366e-05
GAMG:  Solving for epsilon, Initial residual = 0.0002242065231, Final residual = 8.449287412e-07, No Iterations 1
GAMG:  Solving for k, Initial residual = 0.01115008987, Final residual = 1.872556116e-05, No Iterations 1
ExecutionTime = 13.92 s  ClockTime = 14 s

Time = 95

GAMG:  Solving for Ux, Initial residual = 0.001618797655, Final residual = 4.997453487e-06, No Iterations 1
GAMG:  Solving for Uy, Initial residual = 0.002155729921, Final residual = 5.739147518e-06, No Iterations 1
GAMG:  Solving for p, Initial residual = 0.01609045558, Final residual = 3.06427492e-05, No Iterations 6
time step continuity errors : sum local = 9.236301115e-06, global = 7.193603491e-07, cumulative = -2.051572331e-05
GAMG:  Solving for epsilon, Initial residual = 0.0002213660801, Final residual = 8.321607599e-07, No Iterations 1
GAMG:  Solving for k, Initial residual = 0.01097923969, Final residual = 1.836730704e-05, No Iterations 1
ExecutionTime = 14.07 s  ClockTime = 14 s

Time = 96

GAMG:  Solving for Ux, Initial residual = 0.001603478268, Final residual = 4.95727609e-06, No Iterations 1
GAMG:  Solving for Uy, Initial residual = 0.002112817162, Final residual = 5.618641293e-06, No Iterations 1
GAMG:  Solving for p, Initial residual = 0.01555415039, Final residual = 3.004212333e-05, No Iterations 6
time step continuity errors : sum local = 9.121812603e-06, global = 7.034290556e-07, cumulative = -1.981229425e-05
GAMG:  Solving for epsilon, Initial residual = 0.0002185201513, Final residual = 8.195106807e-07, No Iterations 1
GAMG:  Solving for k, Initial residual = 0.01081142174, Final residual = 1.8020821e-05, No Iterations 1
ExecutionTime = 14.23 s  ClockTime = 14 s

Time = 97

GAMG:  Solving for Ux, Initial residual = 0.001588299467, Final residual = 4.917799885e-06, No Iterations 1
GAMG:  Solving for Uy, Initial residual = 0.002070694038, Final residual = 5.512385549e-06, No Iterations 1
GAMG:  Solving for p, Initial residual = 0.01504419383, Final residual = 2.976494771e-05, No Iterations 6
time step continuity errors : sum local = 9.103493577e-06, global = 6.645046664e-07, cumulative = -1.914778959e-05
GAMG:  Solving for epsilon, Initial residual = 0.0002156790508, Final residual = 8.069978071e-07, No Iterations 1
GAMG:  Solving for k, Initial residual = 0.01064644023, Final residual = 1.76860259e-05, No Iterations 1
ExecutionTime = 14.39 s  ClockTime = 14 s

Time = 98

GAMG:  Solving for Ux, Initial residual = 0.001573311751, Final residual = 4.878689731e-06, No Iterations 1
GAMG:  Solving for Uy, Initial residual = 0.002029891081, Final residual = 5.430736691e-06, No Iterations 1
GAMG:  Solving for p, Initial residual = 0.01459089971, Final residual = 6.959999882e-05, No Iterations 5
time step continuity errors : sum local = 2.143552108e-05, global = 7.359891511e-07, cumulative = -1.841180043e-05
GAMG:  Solving for epsilon, Initial residual = 0.0002128729998, Final residual = 7.94726712e-07, No Iterations 1
GAMG:  Solving for k, Initial residual = 0.01048414539, Final residual = 1.736113273e-05, No Iterations 1
ExecutionTime = 14.52 s  ClockTime = 14 s

Time = 99

GAMG:  Solving for Ux, Initial residual = 0.001558580693, Final residual = 4.838872107e-06, No Iterations 1
GAMG:  Solving for Uy, Initial residual = 0.001990683179, Final residual = 5.356706499e-06, No Iterations 1
GAMG:  Solving for p, Initial residual = 0.01416864418, Final residual = 6.561369749e-05, No Iterations 5
time step continuity errors : sum local = 2.03364286e-05, global = 6.856854009e-07, cumulative = -1.772611503e-05
GAMG:  Solving for epsilon, Initial residual = 0.0002100783128, Final residual = 7.826302247e-07, No Iterations 1
GAMG:  Solving for k, Initial residual = 0.0103245642, Final residual = 1.704627181e-05, No Iterations 1
ExecutionTime = 14.67 s  ClockTime = 14 s

Time = 100

GAMG:  Solving for Ux, Initial residual = 0.001544062392, Final residual = 4.798801253e-06, No Iterations 1
GAMG:  Solving for Uy, Initial residual = 0.001953058456, Final residual = 5.28150732e-06, No Iterations 1
GAMG:  Solving for p, Initial residual = 0.0137626693, Final residual = 6.363845375e-05, No Iterations 5
time step continuity errors : sum local = 1.984180117e-05, global = 6.393252499e-07, cumulative = -1.708678978e-05
GAMG:  Solving for epsilon, Initial residual = 0.0002073118985, Final residual = 7.709022483e-07, No Iterations 1
GAMG:  Solving for k, Initial residual = 0.01016756947, Final residual = 1.674216926e-05, No Iterations 1
ExecutionTime = 14.81 s  ClockTime = 15 s

Time = 101

GAMG:  Solving for Ux, Initial residual = 0.001529702081, Final residual = 4.758552571e-06, No Iterations 1
GAMG:  Solving for Uy, Initial residual = 0.001916954085, Final residual = 5.202673846e-06, No Iterations 1
GAMG:  Solving for p, Initial residual = 0.01337186751, Final residual = 6.316285812e-05, No Iterations 5
time step continuity errors : sum local = 1.980496424e-05, global = 6.056144133e-07, cumulative = -1.648117537e-05
GAMG:  Solving for epsilon, Initial residual = 0.0002045712246, Final residual = 7.597083431e-07, No Iterations 1
GAMG:  Solving for k, Initial residual = 0.01001306067, Final residual = 1.644673034e-05, No Iterations 1
ExecutionTime = 14.95 s  ClockTime = 15 s

Time = 102

GAMG:  Solving for Ux, Initial residual = 0.001515468308, Final residual = 4.718611669e-06, No Iterations 1
GAMG:  Solving for Uy, Initial residual = 0.001882427284, Final residual = 5.118248836e-06, No Iterations 1
GAMG:  Solving for p, Initial residual = 0.01299723753, Final residual = 6.348980245e-05, No Iterations 5
time step continuity errors : sum local = 2.001649677e-05, global = 5.869901398e-07, cumulative = -1.589418523e-05
GAMG:  Solving for epsilon, Initial residual = 0.0002018611134, Final residual = 7.490417478e-07, No Iterations 1
GAMG:  Solving for k, Initial residual = 0.009860977875, Final residual = 1.616235533e-05, No Iterations 1
ExecutionTime = 15.08 s  ClockTime = 15 s

Time = 103

GAMG:  Solving for Ux, Initial residual = 0.001501335669, Final residual = 4.679217629e-06, No Iterations 1
GAMG:  Solving for Uy, Initial residual = 0.001849752348, Final residual = 5.025996226e-06, No Iterations 1
GAMG:  Solving for p, Initial residual = 0.01264186085, Final residual = 2.264481656e-05, No Iterations 6
time step continuity errors : sum local = 7.178014596e-06, global = 5.025139617e-07, cumulative = -1.539167127e-05
GAMG:  Solving for epsilon, Initial residual = 0.0001991958417, Final residual = 7.386690363e-07, No Iterations 1
GAMG:  Solving for k, Initial residual = 0.009711464943, Final residual = 1.588839841e-05, No Iterations 1
ExecutionTime = 15.22 s  ClockTime = 15 s

Time = 104

GAMG:  Solving for Ux, Initial residual = 0.00148726008, Final residual = 4.640444114e-06, No Iterations 1
GAMG:  Solving for Uy, Initial residual = 0.001818309185, Final residual = 4.930328725e-06, No Iterations 1
GAMG:  Solving for p, Initial residual = 0.01227959777, Final residual = 2.203288678e-05, No Iterations 6
time step continuity errors : sum local = 7.023211131e-06, global = 5.051897377e-07, cumulative = -1.488648153e-05
GAMG:  Solving for epsilon, Initial residual = 0.0001965760122, Final residual = 7.285503649e-07, No Iterations 1
GAMG:  Solving for k, Initial residual = 0.009564705427, Final residual = 1.562433961e-05, No Iterations 1
ExecutionTime = 15.36 s  ClockTime = 15 s

Time = 105

GAMG:  Solving for Ux, Initial residual = 0.001473294513, Final residual = 4.601637958e-06, No Iterations 1
GAMG:  Solving for Uy, Initial residual = 0.001787411387, Final residual = 4.834340933e-06, No Iterations 1
GAMG:  Solving for p, Initial residual = 0.01191846867, Final residual = 2.159664244e-05, No Iterations 6
time step continuity errors : sum local = 6.923450765e-06, global = 5.116704897e-07, cumulative = -1.437481104e-05
GAMG:  Solving for epsilon, Initial residual = 0.000193991144, Final residual = 7.186378676e-07, No Iterations 1
GAMG:  Solving for k, Initial residual = 0.009420670589, Final residual = 1.536795513e-05, No Iterations 1
ExecutionTime = 15.5 s  ClockTime = 15 s

Time = 106

GAMG:  Solving for Ux, Initial residual = 0.001459417939, Final residual = 4.562767655e-06, No Iterations 1
GAMG:  Solving for Uy, Initial residual = 0.001757039732, Final residual = 4.740201896e-06, No Iterations 1
GAMG:  Solving for p, Initial residual = 0.01156699331, Final residual = 2.12399012e-05, No Iterations 6
time step continuity errors : sum local = 6.848603512e-06, global = 5.192076082e-07, cumulative = -1.385560343e-05
GAMG:  Solving for epsilon, Initial residual = 0.0001914543792, Final residual = 7.088965625e-07, No Iterations 1
GAMG:  Solving for k, Initial residual = 0.009279414173, Final residual = 1.511970923e-05, No Iterations 1
ExecutionTime = 15.64 s  ClockTime = 15 s

Time = 107

GAMG:  Solving for Ux, Initial residual = 0.001445625578, Final residual = 4.524235986e-06, No Iterations 1
GAMG:  Solving for Uy, Initial residual = 0.001727158028, Final residual = 4.649466294e-06, No Iterations 1
GAMG:  Solving for p, Initial residual = 0.0112289225, Final residual = 2.088690123e-05, No Iterations 6
time step continuity errors : sum local = 6.774532823e-06, global = 5.249627547e-07, cumulative = -1.333064068e-05
GAMG:  Solving for epsilon, Initial residual = 0.00018896739, Final residual = 6.993591387e-07, No Iterations 1
GAMG:  Solving for k, Initial residual = 0.009140956306, Final residual = 1.488018419e-05, No Iterations 1
ExecutionTime = 15.78 s  ClockTime = 16 s

Time = 108

GAMG:  Solving for Ux, Initial residual = 0.001431914084, Final residual = 4.485879801e-06, No Iterations 1
GAMG:  Solving for Uy, Initial residual = 0.001698125358, Final residual = 4.564017776e-06, No Iterations 1
GAMG:  Solving for p, Initial residual = 0.01090549127, Final residual = 2.04938054e-05, No Iterations 6
time step continuity errors : sum local = 6.686948138e-06, global = 5.267499698e-07, cumulative = -1.280389071e-05
GAMG:  Solving for epsilon, Initial residual = 0.0001865255262, Final residual = 6.900541264e-07, No Iterations 1
GAMG:  Solving for k, Initial residual = 0.009005258091, Final residual = 1.464844413e-05, No Iterations 1
ExecutionTime = 15.92 s  ClockTime = 16 s

Time = 109

GAMG:  Solving for Ux, Initial residual = 0.001418286534, Final residual = 4.447752836e-06, No Iterations 1
GAMG:  Solving for Uy, Initial residual = 0.00166992442, Final residual = 4.486755876e-06, No Iterations 1
GAMG:  Solving for p, Initial residual = 0.01059308703, Final residual = 2.004251573e-05, No Iterations 6
time step continuity errors : sum local = 6.579454565e-06, global = 5.236555313e-07, cumulative = -1.228023518e-05
GAMG:  Solving for epsilon, Initial residual = 0.0001841364514, Final residual = 6.809332971e-07, No Iterations 1
GAMG:  Solving for k, Initial residual = 0.008872223041, Final residual = 1.442502274e-05, No Iterations 1
ExecutionTime = 16.06 s  ClockTime = 16 s

Time = 110

GAMG:  Solving for Ux, Initial residual = 0.001404747059, Final residual = 4.41008798e-06, No Iterations 1
GAMG:  Solving for Uy, Initial residual = 0.001642786546, Final residual = 4.418087226e-06, No Iterations 1
GAMG:  Solving for p, Initial residual = 0.01029322032, Final residual = 1.953206898e-05, No Iterations 6
time step continuity errors : sum local = 6.450997889e-06, global = 5.170403338e-07, cumulative = -1.176319484e-05
GAMG:  Solving for epsilon, Initial residual = 0.0001818058917, Final residual = 6.720183395e-07, No Iterations 1
GAMG:  Solving for k, Initial residual = 0.008741736778, Final residual = 1.420826226e-05, No Iterations 1
[...]
GAMG:  Solving for Uy, Initial residual = 1.536403217e-05, Final residual = 4.191771977e-08, No Iterations 1
GAMG:  Solving for p, Initial residual = 2.247993557e-05, Final residual = 6.278800951e-08, No Iterations 5
time step continuity errors : sum local = 3.569816593e-08, global = 2.555211754e-09, cumulative = 1.411254531e-05
GAMG:  Solving for epsilon, Initial residual = 4.084610509e-07, Final residual = 1.043890989e-09, No Iterations 1
GAMG:  Solving for k, Initial residual = 2.069831275e-05, Final residual = 4.4578604e-08, No Iterations 1
ExecutionTime = 60.76 s  ClockTime = 61 s

Time = 433

GAMG:  Solving for Ux, Initial residual = 4.506832785e-06, Final residual = 1.326602307e-08, No Iterations 1
GAMG:  Solving for Uy, Initial residual = 1.459656167e-05, Final residual = 3.972628887e-08, No Iterations 1
GAMG:  Solving for p, Initial residual = 2.186576224e-05, Final residual = 6.024067861e-08, No Iterations 5
time step continuity errors : sum local = 3.425435514e-08, global = 2.136285115e-09, cumulative = 1.411468159e-05
GAMG:  Solving for epsilon, Initial residual = 3.820029806e-07, Final residual = 9.811748912e-10, No Iterations 1
GAMG:  Solving for k, Initial residual = 1.933704289e-05, Final residual = 4.190741414e-08, No Iterations 1
ExecutionTime = 60.9 s  ClockTime = 61 s

Time = 434

GAMG:  Solving for Ux, Initial residual = 4.232193893e-06, Final residual = 1.246441478e-08, No Iterations 1
GAMG:  Solving for Uy, Initial residual = 1.385759915e-05, Final residual = 3.761691384e-08, No Iterations 1
GAMG:  Solving for p, Initial residual = 2.126174547e-05, Final residual = 5.762559076e-08, No Iterations 5
time step continuity errors : sum local = 3.277141306e-08, global = 1.672738162e-09, cumulative = 1.411635433e-05
GAMG:  Solving for epsilon, Initial residual = 3.570286769e-07, Final residual = 9.216951424e-10, No Iterations 1
GAMG:  Solving for k, Initial residual = 1.805150393e-05, Final residual = 3.936806072e-08, No Iterations 1
ExecutionTime = 61.03 s  ClockTime = 61 s

Time = 435

GAMG:  Solving for Ux, Initial residual = 3.971684162e-06, Final residual = 1.170315431e-08, No Iterations 1
GAMG:  Solving for Uy, Initial residual = 1.31462906e-05, Final residual = 3.55889779e-08, No Iterations 1
GAMG:  Solving for p, Initial residual = 2.067117722e-05, Final residual = 5.491258931e-08, No Iterations 5
time step continuity errors : sum local = 3.123221056e-08, global = 1.170096011e-09, cumulative = 1.411752443e-05
GAMG:  Solving for epsilon, Initial residual = 3.334758772e-07, Final residual = 8.653075763e-10, No Iterations 1
GAMG:  Solving for k, Initial residual = 1.683867675e-05, Final residual = 3.69561786e-08, No Iterations 1
ExecutionTime = 61.16 s  ClockTime = 61 s

Time = 436

GAMG:  Solving for Ux, Initial residual = 3.724812868e-06, Final residual = 1.098088293e-08, No Iterations 1
GAMG:  Solving for Uy, Initial residual = 1.246227002e-05, Final residual = 3.363856749e-08, No Iterations 1
GAMG:  Solving for p, Initial residual = 2.009388274e-05, Final residual = 5.207544203e-08, No Iterations 5
time step continuity errors : sum local = 2.962184145e-08, global = 6.448087254e-10, cumulative = 1.411816924e-05
GAMG:  Solving for epsilon, Initial residual = 3.112820589e-07, Final residual = 8.118939915e-10, No Iterations 1
GAMG:  Solving for k, Initial residual = 1.569556593e-05, Final residual = 3.466804082e-08, No Iterations 1
ExecutionTime = 61.3 s  ClockTime = 61 s

Time = 437

GAMG:  Solving for Ux, Initial residual = 3.491075822e-06, Final residual = 1.029697302e-08, No Iterations 1
GAMG:  Solving for Uy, Initial residual = 1.180531782e-05, Final residual = 3.177552375e-08, No Iterations 1
GAMG:  Solving for p, Initial residual = 1.952627936e-05, Final residual = 4.911105356e-08, No Iterations 5
time step continuity errors : sum local = 2.79385606e-08, global = 1.163904483e-10, cumulative = 1.411828563e-05
GAMG:  Solving for epsilon, Initial residual = 2.9038466e-07, Final residual = 7.613699627e-10, No Iterations 1
GAMG:  Solving for k, Initial residual = 1.461920081e-05, Final residual = 3.24991749e-08, No Iterations 1
ExecutionTime = 61.43 s  ClockTime = 61 s

Time = 438

GAMG:  Solving for Ux, Initial residual = 3.269925829e-06, Final residual = 9.648639107e-09, No Iterations 1
GAMG:  Solving for Uy, Initial residual = 1.117464165e-05, Final residual = 2.999638765e-08, No Iterations 1
GAMG:  Solving for p, Initial residual = 1.896916692e-05, Final residual = 4.603753728e-08, No Iterations 5
time step continuity errors : sum local = 2.619268385e-08, global = -3.96983742e-10, cumulative = 1.411788864e-05
GAMG:  Solving for epsilon, Initial residual = 2.707235978e-07, Final residual = 7.135645223e-10, No Iterations 1
GAMG:  Solving for k, Initial residual = 1.360663326e-05, Final residual = 3.044474979e-08, No Iterations 1
ExecutionTime = 61.57 s  ClockTime = 61 s

Time = 439

GAMG:  Solving for Ux, Initial residual = 3.06085589e-06, Final residual = 9.034531245e-09, No Iterations 1
GAMG:  Solving for Uy, Initial residual = 1.056961988e-05, Final residual = 2.829428164e-08, No Iterations 1
GAMG:  Solving for p, Initial residual = 1.842631873e-05, Final residual = 4.289054338e-08, No Iterations 5
time step continuity errors : sum local = 2.440451555e-08, global = -8.717069874e-10, cumulative = 1.411701694e-05
GAMG:  Solving for epsilon, Initial residual = 2.522412039e-07, Final residual = 6.68391049e-10, No Iterations 1
GAMG:  Solving for k, Initial residual = 1.265499001e-05, Final residual = 2.850021905e-08, No Iterations 1
ExecutionTime = 61.69 s  ClockTime = 61 s

Time = 440

GAMG:  Solving for Ux, Initial residual = 2.863361114e-06, Final residual = 8.454685248e-09, No Iterations 1
GAMG:  Solving for Uy, Initial residual = 9.990048222e-06, Final residual = 2.667406967e-08, No Iterations 1
GAMG:  Solving for p, Initial residual = 1.789473955e-05, Final residual = 3.971457376e-08, No Iterations 5
time step continuity errors : sum local = 2.259940281e-08, global = -1.28396377e-09, cumulative = 1.411573297e-05
GAMG:  Solving for epsilon, Initial residual = 2.349046746e-07, Final residual = 6.25735361e-10, No Iterations 1
GAMG:  Solving for k, Initial residual = 1.176142538e-05, Final residual = 2.666085987e-08, No Iterations 1
ExecutionTime = 61.83 s  ClockTime = 62 s

Time = 441

GAMG:  Solving for Ux, Initial residual = 2.676937048e-06, Final residual = 7.908049845e-09, No Iterations 1
GAMG:  Solving for Uy, Initial residual = 9.435280443e-06, Final residual = 2.51298325e-08, No Iterations 1
GAMG:  Solving for p, Initial residual = 1.737502932e-05, Final residual = 8.559268687e-08, No Iterations 4
time step continuity errors : sum local = 4.871019687e-08, global = -2.938665164e-09, cumulative = 1.411279431e-05
GAMG:  Solving for epsilon, Initial residual = 2.187389487e-07, Final residual = 5.85409491e-10, No Iterations 1
GAMG:  Solving for k, Initial residual = 1.092315079e-05, Final residual = 2.492208844e-08, No Iterations 1
ExecutionTime = 61.96 s  ClockTime = 62 s

Time = 442

GAMG:  Solving for Ux, Initial residual = 2.501068278e-06, Final residual = 7.391837183e-09, No Iterations 1
GAMG:  Solving for Uy, Initial residual = 8.897951405e-06, Final residual = 2.363862982e-08, No Iterations 1
GAMG:  Solving for p, Initial residual = 1.687762441e-05, Final residual = 8.058665956e-08, No Iterations 4
time step continuity errors : sum local = 4.586489512e-08, global = -3.413886231e-09, cumulative = 1.410938042e-05
GAMG:  Solving for epsilon, Initial residual = 2.035991376e-07, Final residual = 5.474468916e-10, No Iterations 1
GAMG:  Solving for k, Initial residual = 1.013744367e-05, Final residual = 2.32804793e-08, No Iterations 1
ExecutionTime = 62.08 s  ClockTime = 62 s

Time = 443

GAMG:  Solving for Ux, Initial residual = 2.335367026e-06, Final residual = 6.905131422e-09, No Iterations 1
GAMG:  Solving for Uy, Initial residual = 8.387566186e-06, Final residual = 2.222668371e-08, No Iterations 1
GAMG:  Solving for p, Initial residual = 1.638895938e-05, Final residual = 7.575964061e-08, No Iterations 4
time step continuity errors : sum local = 4.312083443e-08, global = -3.822961625e-09, cumulative = 1.410555746e-05
GAMG:  Solving for epsilon, Initial residual = 1.893991202e-07, Final residual = 5.116629253e-10, No Iterations 1
GAMG:  Solving for k, Initial residual = 9.401671366e-06, Final residual = 2.173158946e-08, No Iterations 1
ExecutionTime = 62.21 s  ClockTime = 62 s

Time = 444

GAMG:  Solving for Ux, Initial residual = 2.179311209e-06, Final residual = 6.4463857e-09, No Iterations 1
GAMG:  Solving for Uy, Initial residual = 7.903802932e-06, Final residual = 2.089151234e-08, No Iterations 1
GAMG:  Solving for p, Initial residual = 1.590723547e-05, Final residual = 7.087573113e-08, No Iterations 4
time step continuity errors : sum local = 4.0343806e-08, global = -4.131641058e-09, cumulative = 1.410142582e-05
GAMG:  Solving for epsilon, Initial residual = 1.760888766e-07, Final residual = 4.779726657e-10, No Iterations 1
GAMG:  Solving for k, Initial residual = 8.71337017e-06, Final residual = 2.027143583e-08, No Iterations 1
ExecutionTime = 62.33 s  ClockTime = 62 s

Time = 445

GAMG:  Solving for Ux, Initial residual = 2.032445371e-06, Final residual = 6.014619377e-09, No Iterations 1
GAMG:  Solving for Uy, Initial residual = 7.44599779e-06, Final residual = 1.963065902e-08, No Iterations 1
GAMG:  Solving for p, Initial residual = 1.543489215e-05, Final residual = 6.578323863e-08, No Iterations 4
time step continuity errors : sum local = 3.744749665e-08, global = -4.313279035e-09, cumulative = 1.409711254e-05
GAMG:  Solving for epsilon, Initial residual = 1.636217426e-07, Final residual = 4.462729389e-10, No Iterations 1
GAMG:  Solving for k, Initial residual = 8.069992032e-06, Final residual = 1.889626032e-08, No Iterations 1
ExecutionTime = 62.46 s  ClockTime = 62 s

Time = 446

GAMG:  Solving for Ux, Initial residual = 1.894330006e-06, Final residual = 5.608508799e-09, No Iterations 1
GAMG:  Solving for Uy, Initial residual = 7.011800325e-06, Final residual = 1.843826629e-08, No Iterations 1
GAMG:  Solving for p, Initial residual = 1.49706825e-05, Final residual = 6.048669837e-08, No Iterations 4
time step continuity errors : sum local = 3.443450915e-08, global = -4.345149745e-09, cumulative = 1.409276739e-05
GAMG:  Solving for epsilon, Initial residual = 1.519524989e-07, Final residual = 4.164530859e-10, No Iterations 1
GAMG:  Solving for k, Initial residual = 7.469104143e-06, Final residual = 1.760219466e-08, No Iterations 1
ExecutionTime = 62.59 s  ClockTime = 62 s

Time = 447

GAMG:  Solving for Ux, Initial residual = 1.764544898e-06, Final residual = 5.226535001e-09, No Iterations 1
GAMG:  Solving for Uy, Initial residual = 6.599580876e-06, Final residual = 1.730892416e-08, No Iterations 1
GAMG:  Solving for p, Initial residual = 1.451464455e-05, Final residual = 5.513478063e-08, No Iterations 4
time step continuity errors : sum local = 3.138950449e-08, global = -4.242303634e-09, cumulative = 1.408852509e-05
GAMG:  Solving for epsilon, Initial residual = 1.410384246e-07, Final residual = 3.884362396e-10, No Iterations 1
GAMG:  Solving for k, Initial residual = 6.908358561e-06, Final residual = 1.638548791e-08, No Iterations 1
ExecutionTime = 62.71 s  ClockTime = 62 s

Time = 448

GAMG:  Solving for Ux, Initial residual = 1.643048962e-06, Final residual = 4.867511361e-09, No Iterations 1
GAMG:  Solving for Uy, Initial residual = 6.207744053e-06, Final residual = 1.623839265e-08, No Iterations 1
GAMG:  Solving for p, Initial residual = 1.40668501e-05, Final residual = 5.00131493e-08, No Iterations 4
time step continuity errors : sum local = 2.847516347e-08, global = -4.005581155e-09, cumulative = 1.40845195e-05
GAMG:  Solving for epsilon, Initial residual = 1.308367417e-07, Final residual = 3.621041137e-10, No Iterations 1
GAMG:  Solving for k, Initial residual = 6.385508558e-06, Final residual = 1.524227667e-08, No Iterations 1
ExecutionTime = 62.84 s  ClockTime = 63 s

Time = 449

GAMG:  Solving for Ux, Initial residual = 1.52911355e-06, Final residual = 4.530310947e-09, No Iterations 1
GAMG:  Solving for Uy, Initial residual = 5.83487011e-06, Final residual = 1.522205335e-08, No Iterations 1
GAMG:  Solving for p, Initial residual = 1.362789166e-05, Final residual = 4.529143381e-08, No Iterations 4
time step continuity errors : sum local = 2.578812672e-08, global = -3.684495562e-09, cumulative = 1.408083501e-05
GAMG:  Solving for epsilon, Initial residual = 1.213081422e-07, Final residual = 3.374008746e-10, No Iterations 1
GAMG:  Solving for k, Initial residual = 5.898378953e-06, Final residual = 1.416930965e-08, No Iterations 1
ExecutionTime = 62.97 s  ClockTime = 63 s

Time = 450

GAMG:  Solving for Ux, Initial residual = 1.422295715e-06, Final residual = 4.213817967e-09, No Iterations 1
GAMG:  Solving for Uy, Initial residual = 5.480464093e-06, Final residual = 1.425345483e-08, No Iterations 1
GAMG:  Solving for p, Initial residual = 1.319987804e-05, Final residual = 4.103382731e-08, No Iterations 4
time step continuity errors : sum local = 2.336501265e-08, global = -3.34484973e-09, cumulative = 1.407749016e-05
GAMG:  Solving for epsilon, Initial residual = 1.124163164e-07, Final residual = 3.142379516e-10, No Iterations 1
GAMG:  Solving for k, Initial residual = 5.444897737e-06, Final residual = 1.316306112e-08, No Iterations 1
ExecutionTime = 63.09 s  ClockTime = 63 s

Time = 451

GAMG:  Solving for Ux, Initial residual = 1.322214521e-06, Final residual = 3.917071723e-09, No Iterations 1
GAMG:  Solving for Uy, Initial residual = 5.14274208e-06, Final residual = 1.333624913e-08, No Iterations 1
GAMG:  Solving for p, Initial residual = 1.278225638e-05, Final residual = 3.724622758e-08, No Iterations 4
time step continuity errors : sum local = 2.120924532e-08, global = -3.043489373e-09, cumulative = 1.407444667e-05
GAMG:  Solving for epsilon, Initial residual = 1.041227235e-07, Final residual = 2.925075938e-10, No Iterations 1
GAMG:  Solving for k, Initial residual = 5.023100141e-06, Final residual = 1.22198754e-08, No Iterations 1
ExecutionTime = 63.21 s  ClockTime = 63 s

Time = 452

GAMG:  Solving for Ux, Initial residual = 1.228502081e-06, Final residual = 3.6391262e-09, No Iterations 1
GAMG:  Solving for Uy, Initial residual = 4.821281417e-06, Final residual = 1.246690084e-08, No Iterations 1
GAMG:  Solving for p, Initial residual = 1.237621555e-05, Final residual = 3.392458338e-08, No Iterations 4
time step continuity errors : sum local = 1.93185753e-08, global = -2.81034895e-09, cumulative = 1.407163632e-05
GAMG:  Solving for epsilon, Initial residual = 9.639392099e-08, Final residual = 2.721404074e-10, No Iterations 1
GAMG:  Solving for k, Initial residual = 4.631057898e-06, Final residual = 1.133644791e-08, No Iterations 1
ExecutionTime = 63.34 s  ClockTime = 63 s

Time = 453

GAMG:  Solving for Ux, Initial residual = 1.140817149e-06, Final residual = 3.378956024e-09, No Iterations 1
GAMG:  Solving for Uy, Initial residual = 4.515869881e-06, Final residual = 1.164416347e-08, No Iterations 1
GAMG:  Solving for p, Initial residual = 1.198207917e-05, Final residual = 3.112547877e-08, No Iterations 4
time step continuity errors : sum local = 1.772527854e-08, global = -2.64885723e-09, cumulative = 1.406898746e-05
GAMG:  Solving for epsilon, Initial residual = 8.920386063e-08, Final residual = 2.530737823e-10, No Iterations 1
GAMG:  Solving for k, Initial residual = 4.266963224e-06, Final residual = 1.050991115e-08, No Iterations 1
ExecutionTime = 63.47 s  ClockTime = 63 s

Time = 454

GAMG:  Solving for Ux, Initial residual = 1.058809779e-06, Final residual = 3.135617497e-09, No Iterations 1
GAMG:  Solving for Uy, Initial residual = 4.226696185e-06, Final residual = 1.086695797e-08, No Iterations 1
GAMG:  Solving for p, Initial residual = 1.159993041e-05, Final residual = 2.895330356e-08, No Iterations 4
time step continuity errors : sum local = 1.648885399e-08, global = -2.537643233e-09, cumulative = 1.406644982e-05
GAMG:  Solving for epsilon, Initial residual = 8.25370703e-08, Final residual = 2.352332135e-10, No Iterations 1
GAMG:  Solving for k, Initial residual = 3.929059659e-06, Final residual = 9.737025744e-09, No Iterations 1
ExecutionTime = 63.6 s  ClockTime = 63 s

Time = 455

GAMG:  Solving for Ux, Initial residual = 9.821774835e-07, Final residual = 2.908109841e-09, No Iterations 1
GAMG:  Solving for Uy, Initial residual = 3.953753365e-06, Final residual = 1.013441494e-08, No Iterations 1
GAMG:  Solving for p, Initial residual = 1.122949141e-05, Final residual = 2.739966553e-08, No Iterations 4
time step continuity errors : sum local = 1.560457271e-08, global = -2.452009053e-09, cumulative = 1.406399781e-05
GAMG:  Solving for epsilon, Initial residual = 7.634896358e-08, Final residual = 2.185537322e-10, No Iterations 1
GAMG:  Solving for k, Initial residual = 3.615656632e-06, Final residual = 9.014972752e-09, No Iterations 1
ExecutionTime = 63.72 s  ClockTime = 64 s

Time = 456

GAMG:  Solving for Ux, Initial residual = 9.106009196e-07, Final residual = 2.695565691e-09, No Iterations 1
GAMG:  Solving for Uy, Initial residual = 3.696534751e-06, Final residual = 9.445714095e-09, No Iterations 1
GAMG:  Solving for p, Initial residual = 1.087002763e-05, Final residual = 2.61463922e-08, No Iterations 4
time step continuity errors : sum local = 1.489126798e-08, global = -2.367515912e-09, cumulative = 1.406163029e-05
GAMG:  Solving for epsilon, Initial residual = 7.059139802e-08, Final residual = 2.029687898e-10, No Iterations 1
GAMG:  Solving for k, Initial residual = 3.325131302e-06, Final residual = 8.340992859e-09, No Iterations 1
ExecutionTime = 63.85 s  ClockTime = 64 s

Time = 457

GAMG:  Solving for Ux, Initial residual = 8.437985235e-07, Final residual = 2.497127396e-09, No Iterations 1
GAMG:  Solving for Uy, Initial residual = 3.454271676e-06, Final residual = 8.799850307e-09, No Iterations 1
GAMG:  Solving for p, Initial residual = 1.052191617e-05, Final residual = 2.492887155e-08, No Iterations 4
time step continuity errors : sum local = 1.419825126e-08, global = -2.268405634e-09, cumulative = 1.405936189e-05
GAMG:  Solving for epsilon, Initial residual = 6.523634162e-08, Final residual = 1.884124848e-10, No Iterations 1
GAMG:  Solving for k, Initial residual = 3.056038965e-06, Final residual = 7.712257545e-09, No Iterations 1
ExecutionTime = 63.98 s  ClockTime = 64 s

Time = 458

GAMG:  Solving for Ux, Initial residual = 7.814826521e-07, Final residual = 2.311972593e-09, No Iterations 1
GAMG:  Solving for Uy, Initial residual = 3.226264082e-06, Final residual = 8.195121329e-09, No Iterations 1
GAMG:  Solving for p, Initial residual = 1.018495161e-05, Final residual = 2.359272189e-08, No Iterations 4
time step continuity errors : sum local = 1.343760149e-08, global = -2.14605946e-09, cumulative = 1.405721583e-05
GAMG:  Solving for epsilon, Initial residual = 6.025969465e-08, Final residual = 1.748315878e-10, No Iterations 1
GAMG:  Solving for k, Initial residual = 2.806980403e-06, Final residual = 7.12618189e-09, No Iterations 1
ExecutionTime = 64.1 s  ClockTime = 64 s

Time = 459

GAMG:  Solving for Ux, Initial residual = 7.233736635e-07, Final residual = 2.139340656e-09, No Iterations 1
GAMG:  Solving for Uy, Initial residual = 3.012242884e-06, Final residual = 7.62911233e-09, No Iterations 1
GAMG:  Solving for p, Initial residual = 9.857776446e-06, Final residual = 2.207411255e-08, No Iterations 4
time step continuity errors : sum local = 1.257296197e-08, global = -1.992941093e-09, cumulative = 1.405522289e-05
GAMG:  Solving for epsilon, Initial residual = 5.5638179e-08, Final residual = 1.621697335e-10, No Iterations 1
GAMG:  Solving for k, Initial residual = 2.576572117e-06, Final residual = 6.580292732e-09, No Iterations 1
ExecutionTime = 64.22 s  ClockTime = 64 s


SIMPLE solution converged in 459 iterations

End

