/*---------------------------------------------------------------------------*\
| =========                 |                                                 |
| \\      /  F ield         | OpenFOAM: The Open Source CFD Toolbox           |
|  \\    /   O peration     | Version:  2312                                  |
|   \\  /    A nd           | Website:  www.openfoam.com                      |
|    \\/     M anipulation  |                                                 |
\*---------------------------------------------------------------------------*/
Build  : _e651d635-20240208 OPENFOAM=2312 patch=240220 version=2312
Arch   : "LSB;label=32;scalar=64"
Exec   : simpleFoam
Date   : Jul 16 2025
Time   : 14:31:05
Host   : summit
PID    : 66999
I/O    : uncollated
Case   : /home/vecerniv/tmg/openHFDIBRANS/bfs/default_mesh/100/simpleFoam_kE
nProcs : 1
trapFpe: Floating point exception trapping enabled (FOAM_SIGFPE).
fileModificationChecking : Monitoring run-time modified files using timeStampMaster (fileModificationSkew 5, maxFileModificationPolls 20)
allowSystemOperations : Allowing user-supplied system call operations

// * * * * * * * * * * * * * * * * * * * * * * * * * * * * * * * * * * * * * //
Create time

Create mesh for time = 0


SIMPLE: convergence criteria
    field p	 tolerance 1e-05

Reading field p

Reading field U

Reading/calculating face flux field phi

Selecting incompressible transport model Newtonian
Selecting turbulence model type RAS
Selecting RAS turbulence model kEpsilon
RAS
{
    RASModel        kEpsilon;
    turbulence      on;
    printCoeffs     on;
    Cmu             0.09;
    C1              1.44;
    C2              1.92;
    C3              0;
    sigmak          1;
    sigmaEps        1.3;
}

No MRF models present

No finite volume options present

Starting time loop

--> FOAM Warning : 

    failed lookup of wall (objectRegistry simpleFoam_kE)
    available objects of type objectRegistry:
1(region0)


    From const Type& Foam::objectRegistry::lookupObject(const Foam::word&, bool) const [with Type = Foam::objectRegistry]
    in file db/objectRegistry/objectRegistryTemplates.C at line 628.
--> loading function object 'yPlus1'

Time = 1

GAMG:  Solving for Ux, Initial residual = 1, Final residual = 0.0004890335393, No Iterations 2
GAMG:  Solving for Uy, Initial residual = 0.03143110181, Final residual = 1.194294519e-05, No Iterations 2
GAMG:  Solving for p, Initial residual = 1, Final residual = 0.004997993181, No Iterations 12
time step continuity errors : sum local = 0.0004270619613, global = 9.971447559e-06, cumulative = 9.971447559e-06
GAMG:  Solving for epsilon, Initial residual = 0.06893840468, Final residual = 3.894588647e-05, No Iterations 2
GAMG:  Solving for k, Initial residual = 1, Final residual = 0.000448047139, No Iterations 2
ExecutionTime = 0.73 s  ClockTime = 1 s

Time = 2

GAMG:  Solving for Ux, Initial residual = 0.326758618, Final residual = 0.002749609293, No Iterations 1
GAMG:  Solving for Uy, Initial residual = 0.2543293759, Final residual = 0.0009219944954, No Iterations 1
GAMG:  Solving for p, Initial residual = 0.003139291509, Final residual = 1.21409679e-05, No Iterations 12
time step continuity errors : sum local = 0.0002701659968, global = 4.676195634e-06, cumulative = 1.464764319e-05
GAMG:  Solving for epsilon, Initial residual = 0.04177667558, Final residual = 2.133165614e-05, No Iterations 2
GAMG:  Solving for k, Initial residual = 0.3134190261, Final residual = 6.862121927e-05, No Iterations 2
ExecutionTime = 0.96 s  ClockTime = 1 s

Time = 3

GAMG:  Solving for Ux, Initial residual = 0.2006103945, Final residual = 0.0008954002966, No Iterations 1
GAMG:  Solving for Uy, Initial residual = 0.170950229, Final residual = 0.0005123570118, No Iterations 1
GAMG:  Solving for p, Initial residual = 0.002782785011, Final residual = 1.373604592e-05, No Iterations 10
time step continuity errors : sum local = 0.0004442827444, global = -1.36666144e-05, cumulative = 9.810287939e-07
GAMG:  Solving for epsilon, Initial residual = 0.02861070125, Final residual = 7.980629202e-06, No Iterations 2
GAMG:  Solving for k, Initial residual = 0.08975416202, Final residual = 0.0005295478488, No Iterations 1
ExecutionTime = 1.16 s  ClockTime = 1 s

Time = 4

GAMG:  Solving for Ux, Initial residual = 0.1372997165, Final residual = 0.0004250917796, No Iterations 1
GAMG:  Solving for Uy, Initial residual = 0.1198410264, Final residual = 0.0003459591725, No Iterations 1
GAMG:  Solving for p, Initial residual = 0.004736486513, Final residual = 1.639133091e-05, No Iterations 10
time step continuity errors : sum local = 0.0004892387375, global = -1.436345004e-05, cumulative = -1.338242125e-05
GAMG:  Solving for epsilon, Initial residual = 0.009704778194, Final residual = 5.980145014e-05, No Iterations 1
GAMG:  Solving for k, Initial residual = 0.02290200951, Final residual = 8.273843251e-05, No Iterations 1
ExecutionTime = 1.36 s  ClockTime = 1 s

Time = 5

GAMG:  Solving for Ux, Initial residual = 0.09424944047, Final residual = 0.0002567238722, No Iterations 1
GAMG:  Solving for Uy, Initial residual = 0.08276319681, Final residual = 0.0002311902355, No Iterations 1
GAMG:  Solving for p, Initial residual = 0.01006073265, Final residual = 4.262290054e-05, No Iterations 11
time step continuity errors : sum local = 0.0007781181812, global = -1.841754751e-05, cumulative = -3.179996876e-05
GAMG:  Solving for epsilon, Initial residual = 0.00376490886, Final residual = 2.019386969e-05, No Iterations 1
GAMG:  Solving for k, Initial residual = 0.03634117961, Final residual = 0.0001263357205, No Iterations 1
ExecutionTime = 1.57 s  ClockTime = 2 s

Time = 6

GAMG:  Solving for Ux, Initial residual = 0.06232029445, Final residual = 0.0001747788777, No Iterations 1
GAMG:  Solving for Uy, Initial residual = 0.05280601574, Final residual = 0.0001509577022, No Iterations 1
GAMG:  Solving for p, Initial residual = 0.07344155445, Final residual = 0.0002875394608, No Iterations 10
time step continuity errors : sum local = 0.0008119151329, global = -3.029184135e-05, cumulative = -6.209181011e-05
GAMG:  Solving for epsilon, Initial residual = 0.008040074104, Final residual = 3.560715476e-05, No Iterations 1
GAMG:  Solving for k, Initial residual = 0.03921404977, Final residual = 0.000129634645, No Iterations 1
ExecutionTime = 1.78 s  ClockTime = 2 s

Time = 7

GAMG:  Solving for Ux, Initial residual = 0.03898509877, Final residual = 0.0001262960087, No Iterations 1
GAMG:  Solving for Uy, Initial residual = 0.02809645438, Final residual = 9.640852398e-05, No Iterations 1
GAMG:  Solving for p, Initial residual = 0.01606837053, Final residual = 6.640760887e-05, No Iterations 10
time step continuity errors : sum local = 0.0008513200194, global = -1.949072691e-05, cumulative = -8.158253703e-05
GAMG:  Solving for epsilon, Initial residual = 0.008488382916, Final residual = 3.669549647e-05, No Iterations 1
GAMG:  Solving for k, Initial residual = 0.03292963557, Final residual = 0.0001066835453, No Iterations 1
ExecutionTime = 1.97 s  ClockTime = 2 s

Time = 8

GAMG:  Solving for Ux, Initial residual = 0.04881688242, Final residual = 0.0001124098634, No Iterations 1
GAMG:  Solving for Uy, Initial residual = 0.01634749365, Final residual = 8.059490751e-05, No Iterations 1
GAMG:  Solving for p, Initial residual = 0.007554397837, Final residual = 2.85347765e-05, No Iterations 10
time step continuity errors : sum local = 0.0006866826036, global = -1.287077679e-05, cumulative = -9.445331381e-05
GAMG:  Solving for epsilon, Initial residual = 0.007071398467, Final residual = 3.024239169e-05, No Iterations 1
GAMG:  Solving for k, Initial residual = 0.02850836363, Final residual = 8.919657873e-05, No Iterations 1
ExecutionTime = 2.18 s  ClockTime = 2 s

Time = 9

GAMG:  Solving for Ux, Initial residual = 0.05632074608, Final residual = 0.0001146784288, No Iterations 1
GAMG:  Solving for Uy, Initial residual = 0.02768627886, Final residual = 9.805484606e-05, No Iterations 1
GAMG:  Solving for p, Initial residual = 0.005092405631, Final residual = 1.906357921e-05, No Iterations 10
time step continuity errors : sum local = 0.0005738263408, global = -1.867532118e-05, cumulative = -0.000113128635
GAMG:  Solving for epsilon, Initial residual = 0.005849839425, Final residual = 2.51845978e-05, No Iterations 1
GAMG:  Solving for k, Initial residual = 0.0279820648, Final residual = 9.276175165e-05, No Iterations 1
ExecutionTime = 2.37 s  ClockTime = 2 s

Time = 10

GAMG:  Solving for Ux, Initial residual = 0.0573145183, Final residual = 0.0001182185167, No Iterations 1
GAMG:  Solving for Uy, Initial residual = 0.04108409893, Final residual = 0.0001204974757, No Iterations 1
GAMG:  Solving for p, Initial residual = 0.004623393112, Final residual = 1.337642891e-05, No Iterations 10
time step continuity errors : sum local = 0.0004118262229, global = 1.509171731e-05, cumulative = -9.803691768e-05
GAMG:  Solving for epsilon, Initial residual = 0.005785256236, Final residual = 2.551505039e-05, No Iterations 1
GAMG:  Solving for k, Initial residual = 0.02646107232, Final residual = 9.264973514e-05, No Iterations 1
ExecutionTime = 2.57 s  ClockTime = 3 s

Time = 11

GAMG:  Solving for Ux, Initial residual = 0.05132223524, Final residual = 0.0001174351754, No Iterations 1
GAMG:  Solving for Uy, Initial residual = 0.04775918289, Final residual = 0.0001360978426, No Iterations 1
GAMG:  Solving for p, Initial residual = 0.005171769306, Final residual = 1.184136422e-05, No Iterations 10
time step continuity errors : sum local = 0.0003207339651, global = 1.228557336e-05, cumulative = -8.575134433e-05
GAMG:  Solving for epsilon, Initial residual = 0.00557212395, Final residual = 2.459946934e-05, No Iterations 1
GAMG:  Solving for k, Initial residual = 0.02339696501, Final residual = 8.610124489e-05, No Iterations 1
ExecutionTime = 2.78 s  ClockTime = 3 s

Time = 12

GAMG:  Solving for Ux, Initial residual = 0.04004259277, Final residual = 0.000109892307, No Iterations 1
GAMG:  Solving for Uy, Initial residual = 0.04518005762, Final residual = 0.0001353543298, No Iterations 1
GAMG:  Solving for p, Initial residual = 0.006532789623, Final residual = 1.558547116e-05, No Iterations 10
time step continuity errors : sum local = 0.0003204834462, global = 1.454672652e-05, cumulative = -7.120461781e-05
GAMG:  Solving for epsilon, Initial residual = 0.00496552655, Final residual = 2.184308378e-05, No Iterations 1
GAMG:  Solving for k, Initial residual = 0.02185732422, Final residual = 8.125429479e-05, No Iterations 1
ExecutionTime = 2.98 s  ClockTime = 3 s

Time = 13

GAMG:  Solving for Ux, Initial residual = 0.02717526141, Final residual = 9.944814753e-05, No Iterations 1
GAMG:  Solving for Uy, Initial residual = 0.03326336282, Final residual = 0.0001191412955, No Iterations 1
GAMG:  Solving for p, Initial residual = 0.009806480811, Final residual = 3.483842384e-05, No Iterations 10
time step continuity errors : sum local = 0.0004529012053, global = 1.190654696e-05, cumulative = -5.929807085e-05
GAMG:  Solving for epsilon, Initial residual = 0.004733198355, Final residual = 2.227167823e-05, No Iterations 1
GAMG:  Solving for k, Initial residual = 0.02418199062, Final residual = 9.173417805e-05, No Iterations 1
ExecutionTime = 3.18 s  ClockTime = 3 s

Time = 14

GAMG:  Solving for Ux, Initial residual = 0.01719830626, Final residual = 9.157180275e-05, No Iterations 1
GAMG:  Solving for Uy, Initial residual = 0.01947286742, Final residual = 9.78894024e-05, No Iterations 1
GAMG:  Solving for p, Initial residual = 0.01967458351, Final residual = 9.178355977e-05, No Iterations 9
time step continuity errors : sum local = 0.0005504007175, global = 1.627576376e-05, cumulative = -4.302230709e-05
GAMG:  Solving for epsilon, Initial residual = 0.005225671681, Final residual = 2.543873107e-05, No Iterations 1
GAMG:  Solving for k, Initial residual = 0.02568683255, Final residual = 0.0001016534226, No Iterations 1
ExecutionTime = 3.37 s  ClockTime = 3 s

Time = 15

GAMG:  Solving for Ux, Initial residual = 0.01280277634, Final residual = 8.799788946e-05, No Iterations 1
GAMG:  Solving for Uy, Initial residual = 0.01895873688, Final residual = 8.720764398e-05, No Iterations 1
GAMG:  Solving for p, Initial residual = 0.1464242552, Final residual = 0.0004606043856, No Iterations 9
time step continuity errors : sum local = 0.0003285220806, global = 1.668216131e-05, cumulative = -2.634014578e-05
GAMG:  Solving for epsilon, Initial residual = 0.005505012848, Final residual = 2.691213943e-05, No Iterations 1
GAMG:  Solving for k, Initial residual = 0.02534328265, Final residual = 0.0001057892513, No Iterations 1
ExecutionTime = 3.56 s  ClockTime = 4 s

Time = 16

GAMG:  Solving for Ux, Initial residual = 0.01723388479, Final residual = 8.564888783e-05, No Iterations 1
GAMG:  Solving for Uy, Initial residual = 0.02480547491, Final residual = 8.119090866e-05, No Iterations 1
GAMG:  Solving for p, Initial residual = 0.03252186085, Final residual = 0.0001574755798, No Iterations 8
time step continuity errors : sum local = 0.0004465320438, global = 1.537074623e-05, cumulative = -1.096939956e-05
GAMG:  Solving for epsilon, Initial residual = 0.005284101368, Final residual = 2.597934614e-05, No Iterations 1
GAMG:  Solving for k, Initial residual = 0.02317672381, Final residual = 0.0001030221199, No Iterations 1
ExecutionTime = 3.75 s  ClockTime = 4 s

Time = 17

GAMG:  Solving for Ux, Initial residual = 0.01892457921, Final residual = 7.95178578e-05, No Iterations 1
GAMG:  Solving for Uy, Initial residual = 0.02724234391, Final residual = 7.549773585e-05, No Iterations 1
GAMG:  Solving for p, Initial residual = 0.02577482908, Final residual = 9.504272801e-05, No Iterations 8
time step continuity errors : sum local = 0.000331187085, global = -7.0110124e-06, cumulative = -1.798041196e-05
GAMG:  Solving for epsilon, Initial residual = 0.004591454985, Final residual = 2.267748238e-05, No Iterations 1
GAMG:  Solving for k, Initial residual = 0.01966379855, Final residual = 9.424286134e-05, No Iterations 1
ExecutionTime = 3.94 s  ClockTime = 4 s

Time = 18

GAMG:  Solving for Ux, Initial residual = 0.01824694003, Final residual = 7.072659863e-05, No Iterations 1
GAMG:  Solving for Uy, Initial residual = 0.02520119564, Final residual = 6.826661766e-05, No Iterations 1
GAMG:  Solving for p, Initial residual = 0.03857713736, Final residual = 0.0001662493186, No Iterations 8
time step continuity errors : sum local = 0.0003781987851, global = -1.550622717e-05, cumulative = -3.348663913e-05
GAMG:  Solving for epsilon, Initial residual = 0.003625082154, Final residual = 1.801233127e-05, No Iterations 1
GAMG:  Solving for k, Initial residual = 0.01580425477, Final residual = 8.19545297e-05, No Iterations 1
ExecutionTime = 4.11 s  ClockTime = 4 s

Time = 19

GAMG:  Solving for Ux, Initial residual = 0.01589620685, Final residual = 6.106817569e-05, No Iterations 1
GAMG:  Solving for Uy, Initial residual = 0.02011780249, Final residual = 5.877719865e-05, No Iterations 1
GAMG:  Solving for p, Initial residual = 0.1303655958, Final residual = 0.0004310804394, No Iterations 9
time step continuity errors : sum local = 0.0002764135395, global = -7.903738361e-06, cumulative = -4.139037749e-05
GAMG:  Solving for epsilon, Initial residual = 0.002662443092, Final residual = 1.338407253e-05, No Iterations 1
GAMG:  Solving for k, Initial residual = 0.01245234185, Final residual = 6.965917685e-05, No Iterations 1
ExecutionTime = 4.31 s  ClockTime = 4 s

Time = 20

GAMG:  Solving for Ux, Initial residual = 0.01282811281, Final residual = 5.241875935e-05, No Iterations 1
GAMG:  Solving for Uy, Initial residual = 0.01375859256, Final residual = 4.913742101e-05, No Iterations 1
GAMG:  Solving for p, Initial residual = 0.02225889895, Final residual = 5.066005835e-05, No Iterations 10
time step continuity errors : sum local = 0.0001751323684, global = -7.528123067e-06, cumulative = -4.891850056e-05
GAMG:  Solving for epsilon, Initial residual = 0.001881433898, Final residual = 9.484174094e-06, No Iterations 1
GAMG:  Solving for k, Initial residual = 0.01013891855, Final residual = 6.020203778e-05, No Iterations 1
ExecutionTime = 4.5 s  ClockTime = 5 s

Time = 21

GAMG:  Solving for Ux, Initial residual = 0.01274565411, Final residual = 4.581996513e-05, No Iterations 1
GAMG:  Solving for Uy, Initial residual = 0.008834099625, Final residual = 4.214620018e-05, No Iterations 1
GAMG:  Solving for p, Initial residual = 0.01119529591, Final residual = 4.660866541e-05, No Iterations 9
time step continuity errors : sum local = 0.0002817612159, global = -1.169127327e-05, cumulative = -6.060977383e-05
GAMG:  Solving for epsilon, Initial residual = 0.001343775789, Final residual = 6.762068976e-06, No Iterations 1
GAMG:  Solving for k, Initial residual = 0.01105244213, Final residual = 5.988881183e-05, No Iterations 1
ExecutionTime = 4.69 s  ClockTime = 5 s

Time = 22

GAMG:  Solving for Ux, Initial residual = 0.01348063028, Final residual = 4.16584758e-05, No Iterations 1
GAMG:  Solving for Uy, Initial residual = 0.008570575544, Final residual = 3.843689221e-05, No Iterations 1
GAMG:  Solving for p, Initial residual = 0.007227408891, Final residual = 3.099643274e-05, No Iterations 9
time step continuity errors : sum local = 0.0002462153679, global = -1.45061184e-05, cumulative = -7.511589223e-05
GAMG:  Solving for epsilon, Initial residual = 0.001371080329, Final residual = 7.525133778e-06, No Iterations 1
GAMG:  Solving for k, Initial residual = 0.01194648547, Final residual = 6.374011884e-05, No Iterations 1
ExecutionTime = 4.89 s  ClockTime = 5 s

Time = 23

GAMG:  Solving for Ux, Initial residual = 0.01373061089, Final residual = 3.95443709e-05, No Iterations 1
GAMG:  Solving for Uy, Initial residual = 0.01038279679, Final residual = 3.708943766e-05, No Iterations 1
GAMG:  Solving for p, Initial residual = 0.00552171976, Final residual = 1.901917942e-05, No Iterations 9
time step continuity errors : sum local = 0.0001698312805, global = -4.110233499e-06, cumulative = -7.922612573e-05
GAMG:  Solving for epsilon, Initial residual = 0.001554232845, Final residual = 8.730416337e-06, No Iterations 1
GAMG:  Solving for k, Initial residual = 0.01245976614, Final residual = 6.526742834e-05, No Iterations 1
ExecutionTime = 5.07 s  ClockTime = 5 s

Time = 24

GAMG:  Solving for Ux, Initial residual = 0.01329485612, Final residual = 3.821096091e-05, No Iterations 1
GAMG:  Solving for Uy, Initial residual = 0.01156312777, Final residual = 3.688867377e-05, No Iterations 1
GAMG:  Solving for p, Initial residual = 0.005042560862, Final residual = 1.899677141e-05, No Iterations 9
time step continuity errors : sum local = 0.0001711026412, global = 5.061687512e-06, cumulative = -7.416443821e-05
GAMG:  Solving for epsilon, Initial residual = 0.001689195563, Final residual = 9.36018204e-06, No Iterations 1
GAMG:  Solving for k, Initial residual = 0.0123534049, Final residual = 6.445743378e-05, No Iterations 1
ExecutionTime = 5.27 s  ClockTime = 5 s

Time = 25

GAMG:  Solving for Ux, Initial residual = 0.01213880211, Final residual = 3.70862964e-05, No Iterations 1
GAMG:  Solving for Uy, Initial residual = 0.0113551978, Final residual = 3.626691187e-05, No Iterations 1
GAMG:  Solving for p, Initial residual = 0.005384165923, Final residual = 2.562433883e-05, No Iterations 8
time step continuity errors : sum local = 0.000213828739, global = 7.223570119e-06, cumulative = -6.694086809e-05
GAMG:  Solving for epsilon, Initial residual = 0.001699755445, Final residual = 9.217639142e-06, No Iterations 1
GAMG:  Solving for k, Initial residual = 0.01168896798, Final residual = 6.225045782e-05, No Iterations 1
ExecutionTime = 5.45 s  ClockTime = 5 s

Time = 26

GAMG:  Solving for Ux, Initial residual = 0.01071933285, Final residual = 3.623645782e-05, No Iterations 1
GAMG:  Solving for Uy, Initial residual = 0.009923469677, Final residual = 3.464022008e-05, No Iterations 1
GAMG:  Solving for p, Initial residual = 0.006241549368, Final residual = 2.80881692e-05, No Iterations 8
time step continuity errors : sum local = 0.0002025217272, global = 8.454464331e-06, cumulative = -5.848640376e-05
GAMG:  Solving for epsilon, Initial residual = 0.001584833666, Final residual = 8.5140251e-06, No Iterations 1
GAMG:  Solving for k, Initial residual = 0.01148689636, Final residual = 6.399593374e-05, No Iterations 1
ExecutionTime = 5.64 s  ClockTime = 6 s

Time = 27

GAMG:  Solving for Ux, Initial residual = 0.009446614793, Final residual = 3.588609522e-05, No Iterations 1
GAMG:  Solving for Uy, Initial residual = 0.008233339824, Final residual = 3.293317403e-05, No Iterations 1
GAMG:  Solving for p, Initial residual = 0.007420979881, Final residual = 2.124744741e-05, No Iterations 9
time step continuity errors : sum local = 0.0001254201163, global = 3.585439948e-06, cumulative = -5.490096382e-05
GAMG:  Solving for epsilon, Initial residual = 0.001570835826, Final residual = 8.990969889e-06, No Iterations 1
GAMG:  Solving for k, Initial residual = 0.01212192459, Final residual = 6.77542979e-05, No Iterations 1
ExecutionTime = 5.82 s  ClockTime = 6 s

Time = 28

GAMG:  Solving for Ux, Initial residual = 0.008414204002, Final residual = 3.568464157e-05, No Iterations 1
GAMG:  Solving for Uy, Initial residual = 0.007550235428, Final residual = 3.224597737e-05, No Iterations 1
GAMG:  Solving for p, Initial residual = 0.008768267382, Final residual = 3.478387068e-05, No Iterations 8
time step continuity errors : sum local = 0.0001630690475, global = 6.389328833e-06, cumulative = -4.851163498e-05
GAMG:  Solving for epsilon, Initial residual = 0.001674786058, Final residual = 9.882655818e-06, No Iterations 1
GAMG:  Solving for k, Initial residual = 0.01236147125, Final residual = 6.991846454e-05, No Iterations 1
ExecutionTime = 6 s  ClockTime = 6 s

Time = 29

GAMG:  Solving for Ux, Initial residual = 0.00768898152, Final residual = 3.538532837e-05, No Iterations 1
GAMG:  Solving for Uy, Initial residual = 0.00802769792, Final residual = 3.233410625e-05, No Iterations 1
GAMG:  Solving for p, Initial residual = 0.01015863159, Final residual = 4.169597969e-05, No Iterations 7
time step continuity errors : sum local = 0.0001566951287, global = 8.474842569e-06, cumulative = -4.003679241e-05
GAMG:  Solving for epsilon, Initial residual = 0.00170115095, Final residual = 1.02113002e-05, No Iterations 1
GAMG:  Solving for k, Initial residual = 0.01221866904, Final residual = 7.018452246e-05, No Iterations 1
ExecutionTime = 6.18 s  ClockTime = 6 s

Time = 30

GAMG:  Solving for Ux, Initial residual = 0.007255134867, Final residual = 3.468766693e-05, No Iterations 1
GAMG:  Solving for Uy, Initial residual = 0.008577165326, Final residual = 3.210035523e-05, No Iterations 1
GAMG:  Solving for p, Initial residual = 0.01136243437, Final residual = 3.824144952e-05, No Iterations 7
time step continuity errors : sum local = 0.0001226636665, global = 5.298993726e-06, cumulative = -3.473779869e-05
GAMG:  Solving for epsilon, Initial residual = 0.001634229549, Final residual = 9.950898741e-06, No Iterations 1
GAMG:  Solving for k, Initial residual = 0.01172377355, Final residual = 6.894112778e-05, No Iterations 1
ExecutionTime = 6.35 s  ClockTime = 6 s

Time = 31

GAMG:  Solving for Ux, Initial residual = 0.007011874899, Final residual = 3.349830862e-05, No Iterations 1
GAMG:  Solving for Uy, Initial residual = 0.008596390952, Final residual = 3.128463389e-05, No Iterations 1
GAMG:  Solving for p, Initial residual = 0.01155883493, Final residual = 2.345099906e-05, No Iterations 9
time step continuity errors : sum local = 7.122981915e-05, global = -4.772925711e-06, cumulative = -3.95107244e-05
GAMG:  Solving for epsilon, Initial residual = 0.001501395976, Final residual = 9.257953047e-06, No Iterations 1
GAMG:  Solving for k, Initial residual = 0.01102321304, Final residual = 6.650700742e-05, No Iterations 1
ExecutionTime = 6.54 s  ClockTime = 7 s

Time = 32

GAMG:  Solving for Ux, Initial residual = 0.006873333538, Final residual = 3.193677196e-05, No Iterations 1
GAMG:  Solving for Uy, Initial residual = 0.008031330608, Final residual = 2.996549284e-05, No Iterations 1
GAMG:  Solving for p, Initial residual = 0.01050582674, Final residual = 3.517243259e-05, No Iterations 7
time step continuity errors : sum local = 0.0001116785044, global = -4.68687656e-06, cumulative = -4.419760096e-05
GAMG:  Solving for epsilon, Initial residual = 0.001331687264, Final residual = 8.315270882e-06, No Iterations 1
GAMG:  Solving for k, Initial residual = 0.01027770951, Final residual = 6.33789736e-05, No Iterations 1
ExecutionTime = 6.72 s  ClockTime = 7 s

Time = 33

GAMG:  Solving for Ux, Initial residual = 0.006794920795, Final residual = 3.019406362e-05, No Iterations 1
GAMG:  Solving for Uy, Initial residual = 0.007139854954, Final residual = 2.837286272e-05, No Iterations 1
GAMG:  Solving for p, Initial residual = 0.008810801775, Final residual = 2.670354235e-05, No Iterations 7
time step continuity errors : sum local = 9.385239235e-05, global = -4.715014151e-06, cumulative = -4.891261511e-05
GAMG:  Solving for epsilon, Initial residual = 0.001156722015, Final residual = 7.31175458e-06, No Iterations 1
GAMG:  Solving for k, Initial residual = 0.009601802963, Final residual = 6.014670214e-05, No Iterations 1
ExecutionTime = 6.9 s  ClockTime = 7 s

Time = 34

GAMG:  Solving for Ux, Initial residual = 0.006753205873, Final residual = 2.846444634e-05, No Iterations 1
GAMG:  Solving for Uy, Initial residual = 0.006333968258, Final residual = 2.670396551e-05, No Iterations 1
GAMG:  Solving for p, Initial residual = 0.007128772926, Final residual = 2.888302968e-05, No Iterations 7
time step continuity errors : sum local = 0.0001135920888, global = -5.120756723e-06, cumulative = -5.403337183e-05
GAMG:  Solving for epsilon, Initial residual = 0.001004834334, Final residual = 6.422232482e-06, No Iterations 1
GAMG:  Solving for k, Initial residual = 0.009084547872, Final residual = 5.745092619e-05, No Iterations 1
ExecutionTime = 7.07 s  ClockTime = 7 s

Time = 35

GAMG:  Solving for Ux, Initial residual = 0.006718143216, Final residual = 2.692524695e-05, No Iterations 1
GAMG:  Solving for Uy, Initial residual = 0.005866015879, Final residual = 2.505956886e-05, No Iterations 1
GAMG:  Solving for p, Initial residual = 0.005794930237, Final residual = 2.539901698e-05, No Iterations 7
time step continuity errors : sum local = 0.0001097567327, global = -4.483581998e-06, cumulative = -5.851695383e-05
GAMG:  Solving for epsilon, Initial residual = 0.0008902774361, Final residual = 5.747172978e-06, No Iterations 1
GAMG:  Solving for k, Initial residual = 0.008802492154, Final residual = 5.545473099e-05, No Iterations 1
ExecutionTime = 7.25 s  ClockTime = 7 s

Time = 36

GAMG:  Solving for Ux, Initial residual = 0.00665633041, Final residual = 2.570873557e-05, No Iterations 1
GAMG:  Solving for Uy, Initial residual = 0.005631997318, Final residual = 2.35892495e-05, No Iterations 1
GAMG:  Solving for p, Initial residual = 0.004859609778, Final residual = 1.684784542e-05, No Iterations 7
time step continuity errors : sum local = 7.755632392e-05, global = -3.726483757e-06, cumulative = -6.224343759e-05
GAMG:  Solving for epsilon, Initial residual = 0.0008244807209, Final residual = 5.338229045e-06, No Iterations 1
GAMG:  Solving for k, Initial residual = 0.008790605891, Final residual = 5.420916518e-05, No Iterations 1
ExecutionTime = 7.42 s  ClockTime = 7 s

Time = 37

GAMG:  Solving for Ux, Initial residual = 0.006537625397, Final residual = 2.472857267e-05, No Iterations 1
GAMG:  Solving for Uy, Initial residual = 0.005484146814, Final residual = 2.227830886e-05, No Iterations 1
GAMG:  Solving for p, Initial residual = 0.004320855851, Final residual = 1.280564412e-05, No Iterations 7
time step continuity errors : sum local = 6.069819758e-05, global = -5.863770788e-07, cumulative = -6.282981467e-05
GAMG:  Solving for epsilon, Initial residual = 0.0008084498622, Final residual = 5.273599271e-06, No Iterations 1
GAMG:  Solving for k, Initial residual = 0.008778794729, Final residual = 5.355143316e-05, No Iterations 1
ExecutionTime = 7.6 s  ClockTime = 8 s

Time = 38

GAMG:  Solving for Ux, Initial residual = 0.006358638996, Final residual = 2.396122633e-05, No Iterations 1
GAMG:  Solving for Uy, Initial residual = 0.005345242024, Final residual = 2.115802967e-05, No Iterations 1
GAMG:  Solving for p, Initial residual = 0.004088989491, Final residual = 1.146049737e-05, No Iterations 7
time step continuity errors : sum local = 5.420245339e-05, global = 1.635861236e-06, cumulative = -6.119395343e-05
GAMG:  Solving for epsilon, Initial residual = 0.0008162486746, Final residual = 5.287777448e-06, No Iterations 1
GAMG:  Solving for k, Initial residual = 0.008683521243, Final residual = 5.340490284e-05, No Iterations 1
ExecutionTime = 7.78 s  ClockTime = 8 s

Time = 39

GAMG:  Solving for Ux, Initial residual = 0.006135949716, Final residual = 2.332699867e-05, No Iterations 1
GAMG:  Solving for Uy, Initial residual = 0.005157796272, Final residual = 2.026851172e-05, No Iterations 1
GAMG:  Solving for p, Initial residual = 0.004003807682, Final residual = 1.589785441e-05, No Iterations 7
time step continuity errors : sum local = 7.306616706e-05, global = 1.950708859e-06, cumulative = -5.924324457e-05
GAMG:  Solving for epsilon, Initial residual = 0.0008166046877, Final residual = 5.322200704e-06, No Iterations 1
GAMG:  Solving for k, Initial residual = 0.008710910409, Final residual = 5.356696975e-05, No Iterations 1
ExecutionTime = 7.96 s  ClockTime = 8 s

Time = 40

GAMG:  Solving for Ux, Initial residual = 0.005894972083, Final residual = 2.278761182e-05, No Iterations 1
GAMG:  Solving for Uy, Initial residual = 0.00492590292, Final residual = 1.957368694e-05, No Iterations 1
GAMG:  Solving for p, Initial residual = 0.003979984958, Final residual = 9.719604283e-06, No Iterations 9
time step continuity errors : sum local = 4.260224757e-05, global = 2.569902814e-06, cumulative = -5.667334176e-05
GAMG:  Solving for epsilon, Initial residual = 0.0008357096628, Final residual = 5.48978753e-06, No Iterations 1
GAMG:  Solving for k, Initial residual = 0.008743994599, Final residual = 5.364332068e-05, No Iterations 1
ExecutionTime = 8.15 s  ClockTime = 8 s

Time = 41

GAMG:  Solving for Ux, Initial residual = 0.005656314433, Final residual = 2.231310456e-05, No Iterations 1
GAMG:  Solving for Uy, Initial residual = 0.004706754598, Final residual = 1.906449843e-05, No Iterations 1
GAMG:  Solving for p, Initial residual = 0.003984382645, Final residual = 1.833879225e-05, No Iterations 7
time step continuity errors : sum local = 7.591962603e-05, global = 2.049784298e-06, cumulative = -5.462355746e-05
GAMG:  Solving for epsilon, Initial residual = 0.0008525696101, Final residual = 5.646747877e-06, No Iterations 1
GAMG:  Solving for k, Initial residual = 0.008742263986, Final residual = 5.352981474e-05, No Iterations 1
ExecutionTime = 8.33 s  ClockTime = 8 s

Time = 42

GAMG:  Solving for Ux, Initial residual = 0.005447932804, Final residual = 2.186891002e-05, No Iterations 1
GAMG:  Solving for Uy, Initial residual = 0.004568586433, Final residual = 1.879952999e-05, No Iterations 1
GAMG:  Solving for p, Initial residual = 0.003954346209, Final residual = 1.321747259e-05, No Iterations 7
time step continuity errors : sum local = 5.167417771e-05, global = 1.602410606e-06, cumulative = -5.302114685e-05
GAMG:  Solving for epsilon, Initial residual = 0.0008601624605, Final residual = 5.728590139e-06, No Iterations 1
GAMG:  Solving for k, Initial residual = 0.008673370435, Final residual = 5.315999602e-05, No Iterations 1
ExecutionTime = 8.5 s  ClockTime = 9 s

Time = 43

GAMG:  Solving for Ux, Initial residual = 0.005265236668, Final residual = 2.147302575e-05, No Iterations 1
GAMG:  Solving for Uy, Initial residual = 0.004538826435, Final residual = 1.866292954e-05, No Iterations 1
GAMG:  Solving for p, Initial residual = 0.003906720793, Final residual = 9.061230109e-06, No Iterations 7
time step continuity errors : sum local = 3.37440398e-05, global = 1.871741115e-06, cumulative = -5.114940574e-05
GAMG:  Solving for epsilon, Initial residual = 0.0008523376646, Final residual = 5.706596948e-06, No Iterations 1
GAMG:  Solving for k, Initial residual = 0.008540318237, Final residual = 5.248252749e-05, No Iterations 1
ExecutionTime = 8.67 s  ClockTime = 9 s

Time = 44

GAMG:  Solving for Ux, Initial residual = 0.005114484592, Final residual = 2.107436985e-05, No Iterations 1
GAMG:  Solving for Uy, Initial residual = 0.004512761881, Final residual = 1.849964063e-05, No Iterations 1
GAMG:  Solving for p, Initial residual = 0.003824427881, Final residual = 6.502436189e-06, No Iterations 7
time step continuity errors : sum local = 2.340825764e-05, global = 5.087702031e-07, cumulative = -5.064063554e-05
GAMG:  Solving for epsilon, Initial residual = 0.0008299698416, Final residual = 5.581647178e-06, No Iterations 1
GAMG:  Solving for k, Initial residual = 0.008357021663, Final residual = 5.153227866e-05, No Iterations 1
ExecutionTime = 8.84 s  ClockTime = 9 s

Time = 45

GAMG:  Solving for Ux, Initial residual = 0.004988491038, Final residual = 2.064020154e-05, No Iterations 1
GAMG:  Solving for Uy, Initial residual = 0.004429833638, Final residual = 1.814601931e-05, No Iterations 1
GAMG:  Solving for p, Initial residual = 0.003694428555, Final residual = 1.758808623e-05, No Iterations 5
time step continuity errors : sum local = 6.223887316e-05, global = 3.66166023e-06, cumulative = -4.697897531e-05
GAMG:  Solving for epsilon, Initial residual = 0.0007967974166, Final residual = 5.37560851e-06, No Iterations 1
GAMG:  Solving for k, Initial residual = 0.00814670342, Final residual = 5.042305333e-05, No Iterations 1
ExecutionTime = 9 s  ClockTime = 9 s

Time = 46

GAMG:  Solving for Ux, Initial residual = 0.004882427276, Final residual = 2.017381442e-05, No Iterations 1
GAMG:  Solving for Uy, Initial residual = 0.00428669326, Final residual = 1.760238231e-05, No Iterations 1
GAMG:  Solving for p, Initial residual = 0.003505635565, Final residual = 1.249766619e-05, No Iterations 7
time step continuity errors : sum local = 4.413178204e-05, global = -1.240545839e-06, cumulative = -4.821952115e-05
GAMG:  Solving for epsilon, Initial residual = 0.0007581147668, Final residual = 5.121699073e-06, No Iterations 1
GAMG:  Solving for k, Initial residual = 0.007932065244, Final residual = 4.924446283e-05, No Iterations 1
ExecutionTime = 9.19 s  ClockTime = 9 s

Time = 47

GAMG:  Solving for Ux, Initial residual = 0.004788587338, Final residual = 1.968746446e-05, No Iterations 1
GAMG:  Solving for Uy, Initial residual = 0.004115418625, Final residual = 1.695797514e-05, No Iterations 1
GAMG:  Solving for p, Initial residual = 0.003268731424, Final residual = 1.166474046e-05, No Iterations 7
time step continuity errors : sum local = 4.148812338e-05, global = -1.077319047e-06, cumulative = -4.929684019e-05
GAMG:  Solving for epsilon, Initial residual = 0.0007192027131, Final residual = 4.85788394e-06, No Iterations 1
GAMG:  Solving for k, Initial residual = 0.007740135712, Final residual = 4.807120202e-05, No Iterations 1
ExecutionTime = 9.4 s  ClockTime = 9 s

Time = 48

GAMG:  Solving for Ux, Initial residual = 0.00470118603, Final residual = 1.919852803e-05, No Iterations 1
GAMG:  Solving for Uy, Initial residual = 0.003948490505, Final residual = 1.632029456e-05, No Iterations 1
GAMG:  Solving for p, Initial residual = 0.003018126818, Final residual = 1.052626255e-05, No Iterations 7
time step continuity errors : sum local = 3.787252401e-05, global = -2.015716184e-06, cumulative = -5.131255638e-05
GAMG:  Solving for epsilon, Initial residual = 0.000684158211, Final residual = 4.615639833e-06, No Iterations 1
GAMG:  Solving for k, Initial residual = 0.007571801419, Final residual = 4.6949232e-05, No Iterations 1
ExecutionTime = 9.58 s  ClockTime = 10 s

Time = 49

GAMG:  Solving for Ux, Initial residual = 0.004615308421, Final residual = 1.873808327e-05, No Iterations 1
GAMG:  Solving for Uy, Initial residual = 0.003799840569, Final residual = 1.56895986e-05, No Iterations 1
GAMG:  Solving for p, Initial residual = 0.002786440094, Final residual = 6.190796139e-06, No Iterations 7
time step continuity errors : sum local = 2.251201263e-05, global = -8.024320347e-07, cumulative = -5.211498841e-05
GAMG:  Solving for epsilon, Initial residual = 0.0006559408773, Final residual = 4.415242437e-06, No Iterations 1
GAMG:  Solving for k, Initial residual = 0.007429011923, Final residual = 4.591331966e-05, No Iterations 1
ExecutionTime = 9.76 s  ClockTime = 10 s

Time = 50

GAMG:  Solving for Ux, Initial residual = 0.004528130926, Final residual = 1.830393988e-05, No Iterations 1
GAMG:  Solving for Uy, Initial residual = 0.003671035379, Final residual = 1.515741824e-05, No Iterations 1
GAMG:  Solving for p, Initial residual = 0.002605522447, Final residual = 5.721333345e-06, No Iterations 7
time step continuity errors : sum local = 2.094046898e-05, global = -9.870079636e-07, cumulative = -5.310199637e-05
GAMG:  Solving for epsilon, Initial residual = 0.0006363044316, Final residual = 4.263118169e-06, No Iterations 1
GAMG:  Solving for k, Initial residual = 0.007308568916, Final residual = 4.49876835e-05, No Iterations 1
ExecutionTime = 9.95 s  ClockTime = 10 s

Time = 51

GAMG:  Solving for Ux, Initial residual = 0.004437745933, Final residual = 1.790383447e-05, No Iterations 1
GAMG:  Solving for Uy, Initial residual = 0.003553979276, Final residual = 1.474178708e-05, No Iterations 1
GAMG:  Solving for p, Initial residual = 0.002473997602, Final residual = 4.290635352e-06, No Iterations 7
time step continuity errors : sum local = 1.571006428e-05, global = 5.447776005e-07, cumulative = -5.255721877e-05
GAMG:  Solving for epsilon, Initial residual = 0.0006235912187, Final residual = 4.157723493e-06, No Iterations 1
GAMG:  Solving for k, Initial residual = 0.007204464176, Final residual = 4.418471137e-05, No Iterations 1
ExecutionTime = 10.15 s  ClockTime = 10 s

Time = 52

GAMG:  Solving for Ux, Initial residual = 0.004344165347, Final residual = 1.754007551e-05, No Iterations 1
GAMG:  Solving for Uy, Initial residual = 0.003444512326, Final residual = 1.441959819e-05, No Iterations 1
GAMG:  Solving for p, Initial residual = 0.002380200533, Final residual = 5.077945317e-06, No Iterations 7
time step continuity errors : sum local = 1.848263879e-05, global = 5.77414768e-07, cumulative = -5.197980401e-05
GAMG:  Solving for epsilon, Initial residual = 0.0006157696898, Final residual = 4.089141851e-06, No Iterations 1
GAMG:  Solving for k, Initial residual = 0.007112339828, Final residual = 4.34598696e-05, No Iterations 1
ExecutionTime = 10.34 s  ClockTime = 10 s

Time = 53

GAMG:  Solving for Ux, Initial residual = 0.004252265372, Final residual = 1.720928988e-05, No Iterations 1
GAMG:  Solving for Uy, Initial residual = 0.003341345389, Final residual = 1.418262046e-05, No Iterations 1
GAMG:  Solving for p, Initial residual = 0.002311915864, Final residual = 6.390976166e-06, No Iterations 7
time step continuity errors : sum local = 2.299605461e-05, global = 6.381387499e-07, cumulative = -5.134166526e-05
GAMG:  Solving for epsilon, Initial residual = 0.0006107963429, Final residual = 4.044156521e-06, No Iterations 1
GAMG:  Solving for k, Initial residual = 0.007026012716, Final residual = 4.278678764e-05, No Iterations 1
ExecutionTime = 10.53 s  ClockTime = 11 s

Time = 54

GAMG:  Solving for Ux, Initial residual = 0.004160836362, Final residual = 1.690570056e-05, No Iterations 1
GAMG:  Solving for Uy, Initial residual = 0.003247197053, Final residual = 1.398848632e-05, No Iterations 1
GAMG:  Solving for p, Initial residual = 0.002259209422, Final residual = 8.048030795e-06, No Iterations 7
time step continuity errors : sum local = 2.851863001e-05, global = 6.75351385e-07, cumulative = -5.066631387e-05
GAMG:  Solving for epsilon, Initial residual = 0.0006068183206, Final residual = 4.009418623e-06, No Iterations 1
GAMG:  Solving for k, Initial residual = 0.006948513953, Final residual = 4.213257531e-05, No Iterations 1
ExecutionTime = 10.72 s  ClockTime = 11 s

Time = 55

GAMG:  Solving for Ux, Initial residual = 0.004070827987, Final residual = 1.662161073e-05, No Iterations 1
GAMG:  Solving for Uy, Initial residual = 0.003168488507, Final residual = 1.382331865e-05, No Iterations 1
GAMG:  Solving for p, Initial residual = 0.002221121561, Final residual = 6.286242315e-06, No Iterations 7
time step continuity errors : sum local = 2.189886079e-05, global = 5.991987779e-07, cumulative = -5.006711509e-05
GAMG:  Solving for epsilon, Initial residual = 0.0006023579216, Final residual = 3.972859482e-06, No Iterations 1
GAMG:  Solving for k, Initial residual = 0.006871568714, Final residual = 4.147515083e-05, No Iterations 1
ExecutionTime = 10.91 s  ClockTime = 11 s

Time = 56

GAMG:  Solving for Ux, Initial residual = 0.003984297777, Final residual = 1.634938099e-05, No Iterations 1
GAMG:  Solving for Uy, Initial residual = 0.003108178447, Final residual = 1.368976374e-05, No Iterations 1
GAMG:  Solving for p, Initial residual = 0.002185131339, Final residual = 4.63761747e-06, No Iterations 7
time step continuity errors : sum local = 1.588606265e-05, global = 5.213113885e-07, cumulative = -4.954580371e-05
GAMG:  Solving for epsilon, Initial residual = 0.000596658407, Final residual = 3.92638759e-06, No Iterations 1
GAMG:  Solving for k, Initial residual = 0.006788166473, Final residual = 4.077983915e-05, No Iterations 1
ExecutionTime = 11.09 s  ClockTime = 11 s

Time = 57

GAMG:  Solving for Ux, Initial residual = 0.00390290705, Final residual = 1.608567269e-05, No Iterations 1
GAMG:  Solving for Uy, Initial residual = 0.00306084776, Final residual = 1.355299351e-05, No Iterations 1
GAMG:  Solving for p, Initial residual = 0.002142159098, Final residual = 3.94608858e-06, No Iterations 7
time step continuity errors : sum local = 1.331592686e-05, global = 6.290135777e-07, cumulative = -4.891679013e-05
GAMG:  Solving for epsilon, Initial residual = 0.0005897203414, Final residual = 3.865594965e-06, No Iterations 1
GAMG:  Solving for k, Initial residual = 0.006697024946, Final residual = 4.004922933e-05, No Iterations 1
ExecutionTime = 11.28 s  ClockTime = 11 s

Time = 58

GAMG:  Solving for Ux, Initial residual = 0.003826221874, Final residual = 1.582377035e-05, No Iterations 1
GAMG:  Solving for Uy, Initial residual = 0.003014985711, Final residual = 1.336002782e-05, No Iterations 1
GAMG:  Solving for p, Initial residual = 0.00209235812, Final residual = 9.014841121e-06, No Iterations 6
time step continuity errors : sum local = 3.005150898e-05, global = 1.219296283e-06, cumulative = -4.769749384e-05
GAMG:  Solving for epsilon, Initial residual = 0.0005810327417, Final residual = 3.791031443e-06, No Iterations 1
GAMG:  Solving for k, Initial residual = 0.006597695286, Final residual = 3.927952773e-05, No Iterations 1
ExecutionTime = 11.46 s  ClockTime = 11 s

Time = 59

GAMG:  Solving for Ux, Initial residual = 0.003753777745, Final residual = 1.556152203e-05, No Iterations 1
GAMG:  Solving for Uy, Initial residual = 0.002965038723, Final residual = 1.31348003e-05, No Iterations 1
GAMG:  Solving for p, Initial residual = 0.002040728064, Final residual = 3.884562788e-06, No Iterations 7
time step continuity errors : sum local = 1.283220514e-05, global = 5.269227214e-07, cumulative = -4.717057112e-05
GAMG:  Solving for epsilon, Initial residual = 0.0005709116952, Final residual = 3.704031428e-06, No Iterations 1
GAMG:  Solving for k, Initial residual = 0.006493754033, Final residual = 3.848552192e-05, No Iterations 1
ExecutionTime = 11.65 s  ClockTime = 12 s

Time = 60

GAMG:  Solving for Ux, Initial residual = 0.003685128815, Final residual = 1.530164636e-05, No Iterations 1
GAMG:  Solving for Uy, Initial residual = 0.002909204678, Final residual = 1.288747833e-05, No Iterations 1
GAMG:  Solving for p, Initial residual = 0.001976989666, Final residual = 4.847396897e-06, No Iterations 7
time step continuity errors : sum local = 1.591085693e-05, global = 5.601909345e-07, cumulative = -4.661038019e-05
GAMG:  Solving for epsilon, Initial residual = 0.0005600733935, Final residual = 3.610095901e-06, No Iterations 1
GAMG:  Solving for k, Initial residual = 0.006388830131, Final residual = 3.7689751e-05, No Iterations 1
ExecutionTime = 11.83 s  ClockTime = 12 s

Time = 61

GAMG:  Solving for Ux, Initial residual = 0.003619469394, Final residual = 1.504511173e-05, No Iterations 1
GAMG:  Solving for Uy, Initial residual = 0.002848594036, Final residual = 1.262843946e-05, No Iterations 1
GAMG:  Solving for p, Initial residual = 0.001904058604, Final residual = 4.463790079e-06, No Iterations 7
time step continuity errors : sum local = 1.458633452e-05, global = 5.498500041e-07, cumulative = -4.606053018e-05
GAMG:  Solving for epsilon, Initial residual = 0.0005494115603, Final residual = 3.515165044e-06, No Iterations 1
GAMG:  Solving for k, Initial residual = 0.00629096516, Final residual = 3.692214091e-05, No Iterations 1
ExecutionTime = 12.02 s  ClockTime = 12 s

Time = 62

GAMG:  Solving for Ux, Initial residual = 0.003556095535, Final residual = 1.479293869e-05, No Iterations 1
GAMG:  Solving for Uy, Initial residual = 0.002785975267, Final residual = 1.235742516e-05, No Iterations 1
GAMG:  Solving for p, Initial residual = 0.001829322817, Final residual = 3.725962476e-06, No Iterations 7
time step continuity errors : sum local = 1.213279473e-05, global = 4.136834203e-07, cumulative = -4.564684676e-05
GAMG:  Solving for epsilon, Initial residual = 0.0005394917194, Final residual = 3.42428944e-06, No Iterations 1
GAMG:  Solving for k, Initial residual = 0.006200983791, Final residual = 3.619389902e-05, No Iterations 1
ExecutionTime = 12.21 s  ClockTime = 12 s

Time = 63

GAMG:  Solving for Ux, Initial residual = 0.003494482801, Final residual = 1.454788058e-05, No Iterations 1
GAMG:  Solving for Uy, Initial residual = 0.002724858626, Final residual = 1.212149173e-05, No Iterations 1
GAMG:  Solving for p, Initial residual = 0.001758919875, Final residual = 3.186068635e-06, No Iterations 7
time step continuity errors : sum local = 1.033928075e-05, global = 2.979397824e-07, cumulative = -4.534890698e-05
GAMG:  Solving for epsilon, Initial residual = 0.0005306373653, Final residual = 3.341075722e-06, No Iterations 1
GAMG:  Solving for k, Initial residual = 0.006115875496, Final residual = 3.550452679e-05, No Iterations 1
ExecutionTime = 12.39 s  ClockTime = 12 s

Time = 64

GAMG:  Solving for Ux, Initial residual = 0.003435936154, Final residual = 1.43107996e-05, No Iterations 1
GAMG:  Solving for Uy, Initial residual = 0.002666495432, Final residual = 1.191988384e-05, No Iterations 1
GAMG:  Solving for p, Initial residual = 0.001694447084, Final residual = 7.658395979e-06, No Iterations 6
time step continuity errors : sum local = 2.475266668e-05, global = 4.478606638e-07, cumulative = -4.490104632e-05
GAMG:  Solving for epsilon, Initial residual = 0.0005229205776, Final residual = 3.267746502e-06, No Iterations 1
GAMG:  Solving for k, Initial residual = 0.006034866728, Final residual = 3.485262176e-05, No Iterations 1
ExecutionTime = 12.57 s  ClockTime = 13 s

Time = 65

GAMG:  Solving for Ux, Initial residual = 0.003379370901, Final residual = 1.40836708e-05, No Iterations 1
GAMG:  Solving for Uy, Initial residual = 0.002612130085, Final residual = 1.174543296e-05, No Iterations 1
GAMG:  Solving for p, Initial residual = 0.001638029882, Final residual = 2.918769435e-06, No Iterations 7
time step continuity errors : sum local = 9.386495668e-06, global = 3.570138759e-07, cumulative = -4.454403244e-05
GAMG:  Solving for epsilon, Initial residual = 0.0005162992441, Final residual = 3.204926063e-06, No Iterations 1
GAMG:  Solving for k, Initial residual = 0.005956984584, Final residual = 3.424362782e-05, No Iterations 1
ExecutionTime = 12.76 s  ClockTime = 13 s

Time = 66

GAMG:  Solving for Ux, Initial residual = 0.003323577697, Final residual = 1.386789573e-05, No Iterations 1
GAMG:  Solving for Uy, Initial residual = 0.0025632787, Final residual = 1.160666712e-05, No Iterations 1
GAMG:  Solving for p, Initial residual = 0.001586785489, Final residual = 3.149051802e-06, No Iterations 7
time step continuity errors : sum local = 1.006531211e-05, global = 3.806013588e-07, cumulative = -4.416343108e-05
GAMG:  Solving for epsilon, Initial residual = 0.0005104930206, Final residual = 3.151190383e-06, No Iterations 1
GAMG:  Solving for k, Initial residual = 0.005881150583, Final residual = 3.366622132e-05, No Iterations 1
ExecutionTime = 12.95 s  ClockTime = 13 s

Time = 67

GAMG:  Solving for Ux, Initial residual = 0.003268691998, Final residual = 1.366452032e-05, No Iterations 1
GAMG:  Solving for Uy, Initial residual = 0.002519460834, Final residual = 1.145093716e-05, No Iterations 1
GAMG:  Solving for p, Initial residual = 0.001542828456, Final residual = 3.318936232e-06, No Iterations 7
time step continuity errors : sum local = 1.053386087e-05, global = 4.020342626e-07, cumulative = -4.376139682e-05
GAMG:  Solving for epsilon, Initial residual = 0.0005052293393, Final residual = 3.104863543e-06, No Iterations 1
GAMG:  Solving for k, Initial residual = 0.00580754749, Final residual = 3.312325549e-05, No Iterations 1
ExecutionTime = 13.12 s  ClockTime = 13 s

Time = 68

GAMG:  Solving for Ux, Initial residual = 0.0032149638, Final residual = 1.34705658e-05, No Iterations 1
GAMG:  Solving for Uy, Initial residual = 0.002481331138, Final residual = 1.13119171e-05, No Iterations 1
GAMG:  Solving for p, Initial residual = 0.001503481025, Final residual = 3.313573339e-06, No Iterations 7
time step continuity errors : sum local = 1.043650124e-05, global = 3.671517102e-07, cumulative = -4.339424511e-05
GAMG:  Solving for epsilon, Initial residual = 0.0005002157787, Final residual = 3.061183312e-06, No Iterations 1
GAMG:  Solving for k, Initial residual = 0.005735724911, Final residual = 3.262523527e-05, No Iterations 1
ExecutionTime = 13.3 s  ClockTime = 13 s

Time = 69

GAMG:  Solving for Ux, Initial residual = 0.003162357176, Final residual = 1.328723011e-05, No Iterations 1
GAMG:  Solving for Uy, Initial residual = 0.002447766856, Final residual = 1.118516952e-05, No Iterations 1
GAMG:  Solving for p, Initial residual = 0.001466512898, Final residual = 3.182354468e-06, No Iterations 7
time step continuity errors : sum local = 9.944187331e-06, global = 3.373754985e-07, cumulative = -4.305686961e-05
GAMG:  Solving for epsilon, Initial residual = 0.0004952084867, Final residual = 3.017483921e-06, No Iterations 1
GAMG:  Solving for k, Initial residual = 0.005666574267, Final residual = 3.215886282e-05, No Iterations 1
ExecutionTime = 13.47 s  ClockTime = 13 s

Time = 70

GAMG:  Solving for Ux, Initial residual = 0.003110667857, Final residual = 1.311247786e-05, No Iterations 1
GAMG:  Solving for Uy, Initial residual = 0.002418369146, Final residual = 1.105749624e-05, No Iterations 1
GAMG:  Solving for p, Initial residual = 0.001432942826, Final residual = 3.000255858e-06, No Iterations 7
time step continuity errors : sum local = 9.302317222e-06, global = 3.259406243e-07, cumulative = -4.273092899e-05
GAMG:  Solving for epsilon, Initial residual = 0.0004900676517, Final residual = 2.972255133e-06, No Iterations 1
GAMG:  Solving for k, Initial residual = 0.005598908085, Final residual = 3.169354665e-05, No Iterations 1
ExecutionTime = 13.64 s  ClockTime = 14 s

Time = 71

GAMG:  Solving for Ux, Initial residual = 0.003059864186, Final residual = 1.294032096e-05, No Iterations 1
GAMG:  Solving for Uy, Initial residual = 0.002390418014, Final residual = 1.091959161e-05, No Iterations 1
GAMG:  Solving for p, Initial residual = 0.001401422472, Final residual = 2.785832336e-06, No Iterations 7
time step continuity errors : sum local = 8.573752099e-06, global = 3.263818717e-07, cumulative = -4.240454712e-05
GAMG:  Solving for epsilon, Initial residual = 0.0004847347515, Final residual = 2.924723323e-06, No Iterations 1
GAMG:  Solving for k, Initial residual = 0.005530020953, Final residual = 3.122639277e-05, No Iterations 1
ExecutionTime = 13.81 s  ClockTime = 14 s

Time = 72

GAMG:  Solving for Ux, Initial residual = 0.003010168287, Final residual = 1.277016171e-05, No Iterations 1
GAMG:  Solving for Uy, Initial residual = 0.002362644741, Final residual = 1.077367167e-05, No Iterations 1
GAMG:  Solving for p, Initial residual = 0.001367368203, Final residual = 2.568339188e-06, No Iterations 7
time step continuity errors : sum local = 7.850476397e-06, global = 3.264916296e-07, cumulative = -4.207805549e-05
GAMG:  Solving for epsilon, Initial residual = 0.0004792355565, Final residual = 2.874908644e-06, No Iterations 1
GAMG:  Solving for k, Initial residual = 0.005460931798, Final residual = 3.076329847e-05, No Iterations 1
ExecutionTime = 14 s  ClockTime = 14 s

Time = 73

GAMG:  Solving for Ux, Initial residual = 0.002961727298, Final residual = 1.260223048e-05, No Iterations 1
GAMG:  Solving for Uy, Initial residual = 0.002334801237, Final residual = 1.065101711e-05, No Iterations 1
GAMG:  Solving for p, Initial residual = 0.001333522885, Final residual = 2.416713566e-06, No Iterations 7
time step continuity errors : sum local = 7.341075991e-06, global = 3.163709541e-07, cumulative = -4.176168453e-05
GAMG:  Solving for epsilon, Initial residual = 0.0004736726638, Final residual = 2.823551631e-06, No Iterations 1
GAMG:  Solving for k, Initial residual = 0.005392022358, Final residual = 3.03036087e-05, No Iterations 1
ExecutionTime = 14.18 s  ClockTime = 14 s

Time = 74

GAMG:  Solving for Ux, Initial residual = 0.002914511096, Final residual = 1.243784774e-05, No Iterations 1
GAMG:  Solving for Uy, Initial residual = 0.002306009305, Final residual = 1.050297729e-05, No Iterations 1
GAMG:  Solving for p, Initial residual = 0.001299659119, Final residual = 2.328237959e-06, No Iterations 7
time step continuity errors : sum local = 7.032135028e-06, global = 3.006774437e-07, cumulative = -4.146100709e-05
GAMG:  Solving for epsilon, Initial residual = 0.0004681505077, Final residual = 2.772476232e-06, No Iterations 1
GAMG:  Solving for k, Initial residual = 0.005323735848, Final residual = 2.986696069e-05, No Iterations 1
ExecutionTime = 14.37 s  ClockTime = 14 s

Time = 75

GAMG:  Solving for Ux, Initial residual = 0.002868466978, Final residual = 1.228065724e-05, No Iterations 1
GAMG:  Solving for Uy, Initial residual = 0.002276080643, Final residual = 1.036027245e-05, No Iterations 1
GAMG:  Solving for p, Initial residual = 0.001262288718, Final residual = 2.282050684e-06, No Iterations 7
time step continuity errors : sum local = 6.856251521e-06, global = 2.871841901e-07, cumulative = -4.11738229e-05
GAMG:  Solving for epsilon, Initial residual = 0.0004627551866, Final residual = 2.723336953e-06, No Iterations 1
GAMG:  Solving for k, Initial residual = 0.005257178251, Final residual = 2.945602287e-05, No Iterations 1
ExecutionTime = 14.56 s  ClockTime = 15 s

Time = 76

GAMG:  Solving for Ux, Initial residual = 0.002824507922, Final residual = 1.213181985e-05, No Iterations 1
GAMG:  Solving for Uy, Initial residual = 0.00224629785, Final residual = 1.022992872e-05, No Iterations 1
GAMG:  Solving for p, Initial residual = 0.001225456381, Final residual = 2.287388322e-06, No Iterations 7
time step continuity errors : sum local = 6.837671239e-06, global = 2.760347163e-07, cumulative = -4.089778818e-05
GAMG:  Solving for epsilon, Initial residual = 0.0004575690839, Final residual = 2.676013827e-06, No Iterations 1
GAMG:  Solving for k, Initial residual = 0.005192368888, Final residual = 2.906686222e-05, No Iterations 1
ExecutionTime = 14.76 s  ClockTime = 15 s

Time = 77

GAMG:  Solving for Ux, Initial residual = 0.00278224809, Final residual = 1.198829072e-05, No Iterations 1
GAMG:  Solving for Uy, Initial residual = 0.002216786673, Final residual = 1.010509623e-05, No Iterations 1
GAMG:  Solving for p, Initial residual = 0.001191281567, Final residual = 2.362699876e-06, No Iterations 7
time step continuity errors : sum local = 7.027817723e-06, global = 2.646614157e-07, cumulative = -4.063312677e-05
GAMG:  Solving for epsilon, Initial residual = 0.0004526377889, Final residual = 2.630778477e-06, No Iterations 1
GAMG:  Solving for k, Initial residual = 0.005131492134, Final residual = 2.86934151e-05, No Iterations 1
ExecutionTime = 14.95 s  ClockTime = 15 s

Time = 78

GAMG:  Solving for Ux, Initial residual = 0.002740859479, Final residual = 1.184905794e-05, No Iterations 1
GAMG:  Solving for Uy, Initial residual = 0.00218757434, Final residual = 9.985422961e-06, No Iterations 1
GAMG:  Solving for p, Initial residual = 0.001158521992, Final residual = 2.457986097e-06, No Iterations 7
time step continuity errors : sum local = 7.274750459e-06, global = 2.567358665e-07, cumulative = -4.03763909e-05
GAMG:  Solving for epsilon, Initial residual = 0.0004479564177, Final residual = 2.587638561e-06, No Iterations 1
GAMG:  Solving for k, Initial residual = 0.005073658492, Final residual = 2.833528173e-05, No Iterations 1
ExecutionTime = 15.14 s  ClockTime = 15 s

Time = 79

GAMG:  Solving for Ux, Initial residual = 0.002700282123, Final residual = 1.171382954e-05, No Iterations 1
GAMG:  Solving for Uy, Initial residual = 0.00216004076, Final residual = 9.882893312e-06, No Iterations 1
GAMG:  Solving for p, Initial residual = 0.001127504403, Final residual = 2.526107305e-06, No Iterations 7
time step continuity errors : sum local = 7.438209735e-06, global = 2.501912766e-07, cumulative = -4.012619962e-05
GAMG:  Solving for epsilon, Initial residual = 0.0004435092797, Final residual = 2.546549038e-06, No Iterations 1
GAMG:  Solving for k, Initial residual = 0.00501695532, Final residual = 2.799136112e-05, No Iterations 1
ExecutionTime = 15.28 s  ClockTime = 15 s

Time = 80

GAMG:  Solving for Ux, Initial residual = 0.002660612111, Final residual = 1.158230713e-05, No Iterations 1
GAMG:  Solving for Uy, Initial residual = 0.00213424044, Final residual = 9.760626322e-06, No Iterations 1
GAMG:  Solving for p, Initial residual = 0.001101063533, Final residual = 2.567417862e-06, No Iterations 7
time step continuity errors : sum local = 7.52028897e-06, global = 2.423100879e-07, cumulative = -3.988388954e-05
GAMG:  Solving for epsilon, Initial residual = 0.0004392587034, Final residual = 2.507160265e-06, No Iterations 1
GAMG:  Solving for k, Initial residual = 0.004961204522, Final residual = 2.765575138e-05, No Iterations 1
ExecutionTime = 15.4 s  ClockTime = 15 s

Time = 81

GAMG:  Solving for Ux, Initial residual = 0.002621780365, Final residual = 1.145410788e-05, No Iterations 1
GAMG:  Solving for Uy, Initial residual = 0.002110638923, Final residual = 9.646294445e-06, No Iterations 1
GAMG:  Solving for p, Initial residual = 0.001075945458, Final residual = 2.605293485e-06, No Iterations 7
time step continuity errors : sum local = 7.590477492e-06, global = 2.356357158e-07, cumulative = -3.964825382e-05
GAMG:  Solving for epsilon, Initial residual = 0.0004351511876, Final residual = 2.468966403e-06, No Iterations 1
GAMG:  Solving for k, Initial residual = 0.00490631849, Final residual = 2.73289027e-05, No Iterations 1
ExecutionTime = 15.53 s  ClockTime = 16 s

Time = 82

GAMG:  Solving for Ux, Initial residual = 0.002583651907, Final residual = 1.132826066e-05, No Iterations 1
GAMG:  Solving for Uy, Initial residual = 0.002088009414, Final residual = 9.535961334e-06, No Iterations 1
GAMG:  Solving for p, Initial residual = 0.001050829978, Final residual = 2.635049839e-06, No Iterations 7
time step continuity errors : sum local = 7.635734581e-06, global = 2.314381353e-07, cumulative = -3.941681568e-05
GAMG:  Solving for epsilon, Initial residual = 0.0004311416231, Final residual = 2.431576485e-06, No Iterations 1
GAMG:  Solving for k, Initial residual = 0.004851727176, Final residual = 2.700532532e-05, No Iterations 1
ExecutionTime = 15.68 s  ClockTime = 16 s

Time = 83

GAMG:  Solving for Ux, Initial residual = 0.002546229112, Final residual = 1.120432812e-05, No Iterations 1
GAMG:  Solving for Uy, Initial residual = 0.002066961408, Final residual = 9.442478909e-06, No Iterations 1
GAMG:  Solving for p, Initial residual = 0.001028084316, Final residual = 2.616328586e-06, No Iterations 7
time step continuity errors : sum local = 7.540618598e-06, global = 2.280769121e-07, cumulative = -3.918873877e-05
GAMG:  Solving for epsilon, Initial residual = 0.0004271942615, Final residual = 2.394599011e-06, No Iterations 1
GAMG:  Solving for k, Initial residual = 0.004797121112, Final residual = 2.668166937e-05, No Iterations 1
ExecutionTime = 15.83 s  ClockTime = 16 s

Time = 84

GAMG:  Solving for Ux, Initial residual = 0.00250947384, Final residual = 1.10825381e-05, No Iterations 1
GAMG:  Solving for Uy, Initial residual = 0.002045980847, Final residual = 9.333700753e-06, No Iterations 1
GAMG:  Solving for p, Initial residual = 0.001005642869, Final residual = 2.563187446e-06, No Iterations 7
time step continuity errors : sum local = 7.348122585e-06, global = 2.241626562e-07, cumulative = -3.896457612e-05
GAMG:  Solving for epsilon, Initial residual = 0.0004232922935, Final residual = 2.357765518e-06, No Iterations 1
GAMG:  Solving for k, Initial residual = 0.004742606835, Final residual = 2.635730236e-05, No Iterations 1
ExecutionTime = 15.96 s  ClockTime = 16 s

Time = 85

GAMG:  Solving for Ux, Initial residual = 0.002473358262, Final residual = 1.096249232e-05, No Iterations 1
GAMG:  Solving for Uy, Initial residual = 0.002024797823, Final residual = 9.236121927e-06, No Iterations 1
GAMG:  Solving for p, Initial residual = 0.0009828534709, Final residual = 2.506877527e-06, No Iterations 7
time step continuity errors : sum local = 7.149234823e-06, global = 2.205709952e-07, cumulative = -3.874400512e-05
GAMG:  Solving for epsilon, Initial residual = 0.0004194393202, Final residual = 2.320973185e-06, No Iterations 1
GAMG:  Solving for k, Initial residual = 0.004688998426, Final residual = 2.603747604e-05, No Iterations 1
ExecutionTime = 16.1 s  ClockTime = 16 s

Time = 86

GAMG:  Solving for Ux, Initial residual = 0.002437854817, Final residual = 1.084427818e-05, No Iterations 1
GAMG:  Solving for Uy, Initial residual = 0.002003065365, Final residual = 9.138617753e-06, No Iterations 1
GAMG:  Solving for p, Initial residual = 0.0009609276623, Final residual = 2.465036589e-06, No Iterations 7
time step continuity errors : sum local = 6.994272216e-06, global = 2.176212463e-07, cumulative = -3.852638387e-05
GAMG:  Solving for epsilon, Initial residual = 0.0004156453173, Final residual = 2.284309969e-06, No Iterations 1
GAMG:  Solving for k, Initial residual = 0.004638271175, Final residual = 2.572190906e-05, No Iterations 1
ExecutionTime = 16.21 s  ClockTime = 16 s

Time = 87

GAMG:  Solving for Ux, Initial residual = 0.002402924173, Final residual = 1.072779649e-05, No Iterations 1
GAMG:  Solving for Uy, Initial residual = 0.001981970466, Final residual = 9.043048571e-06, No Iterations 1
GAMG:  Solving for p, Initial residual = 0.0009399254269, Final residual = 2.44717085e-06, No Iterations 7
time step continuity errors : sum local = 6.909435107e-06, global = 2.142779329e-07, cumulative = -3.831210594e-05
GAMG:  Solving for epsilon, Initial residual = 0.000411915953, Final residual = 2.248249774e-06, No Iterations 1
GAMG:  Solving for k, Initial residual = 0.004589377345, Final residual = 2.541038779e-05, No Iterations 1
ExecutionTime = 16.33 s  ClockTime = 16 s

Time = 88

GAMG:  Solving for Ux, Initial residual = 0.002368559605, Final residual = 1.061228294e-05, No Iterations 1
GAMG:  Solving for Uy, Initial residual = 0.001960019989, Final residual = 8.949305161e-06, No Iterations 1
GAMG:  Solving for p, Initial residual = 0.0009195823507, Final residual = 2.46229024e-06, No Iterations 7
time step continuity errors : sum local = 6.918921372e-06, global = 2.121055356e-07, cumulative = -3.810000041e-05
GAMG:  Solving for epsilon, Initial residual = 0.0004082574245, Final residual = 2.212716829e-06, No Iterations 1
GAMG:  Solving for k, Initial residual = 0.00454130492, Final residual = 2.510273451e-05, No Iterations 1
ExecutionTime = 16.46 s  ClockTime = 16 s

Time = 89

GAMG:  Solving for Ux, Initial residual = 0.002334951399, Final residual = 1.049778211e-05, No Iterations 1
GAMG:  Solving for Uy, Initial residual = 0.001938364277, Final residual = 8.846485971e-06, No Iterations 1
GAMG:  Solving for p, Initial residual = 0.0008983959423, Final residual = 2.531087105e-06, No Iterations 7
time step continuity errors : sum local = 7.079109871e-06, global = 2.125392097e-07, cumulative = -3.78874612e-05
GAMG:  Solving for epsilon, Initial residual = 0.0004046802142, Final residual = 2.177756585e-06, No Iterations 1
GAMG:  Solving for k, Initial residual = 0.004493865363, Final residual = 2.480116255e-05, No Iterations 1
ExecutionTime = 16.57 s  ClockTime = 17 s

Time = 90

GAMG:  Solving for Ux, Initial residual = 0.002302899374, Final residual = 1.038430954e-05, No Iterations 1
GAMG:  Solving for Uy, Initial residual = 0.001916026517, Final residual = 8.752496401e-06, No Iterations 1
GAMG:  Solving for p, Initial residual = 0.0008755375661, Final residual = 2.662295297e-06, No Iterations 7
time step continuity errors : sum local = 7.412065655e-06, global = 2.164391905e-07, cumulative = -3.767102201e-05
GAMG:  Solving for epsilon, Initial residual = 0.0004011943459, Final residual = 2.14359388e-06, No Iterations 1
GAMG:  Solving for k, Initial residual = 0.004447199277, Final residual = 2.45059826e-05, No Iterations 1
ExecutionTime = 16.69 s  ClockTime = 17 s

Time = 91

GAMG:  Solving for Ux, Initial residual = 0.002271411216, Final residual = 1.027188936e-05, No Iterations 1
GAMG:  Solving for Uy, Initial residual = 0.001893970117, Final residual = 8.663482164e-06, No Iterations 1
GAMG:  Solving for p, Initial residual = 0.0008538612038, Final residual = 2.882850398e-06, No Iterations 7
time step continuity errors : sum local = 7.989945703e-06, global = 2.208840031e-07, cumulative = -3.7450138e-05
GAMG:  Solving for epsilon, Initial residual = 0.0003978153139, Final residual = 2.110154188e-06, No Iterations 1
GAMG:  Solving for k, Initial residual = 0.004401149629, Final residual = 2.421681186e-05, No Iterations 1
ExecutionTime = 16.81 s  ClockTime = 17 s

Time = 92

GAMG:  Solving for Ux, Initial residual = 0.002240450008, Final residual = 1.016074848e-05, No Iterations 1
GAMG:  Solving for Uy, Initial residual = 0.00187226468, Final residual = 8.572821406e-06, No Iterations 1
GAMG:  Solving for p, Initial residual = 0.0008350328509, Final residual = 3.189620681e-06, No Iterations 7
time step continuity errors : sum local = 8.800709614e-06, global = 2.238780778e-07, cumulative = -3.722625993e-05
GAMG:  Solving for epsilon, Initial residual = 0.0003945359817, Final residual = 2.077509661e-06, No Iterations 1
GAMG:  Solving for k, Initial residual = 0.004355725165, Final residual = 2.393501282e-05, No Iterations 1
ExecutionTime = 16.98 s  ClockTime = 17 s

Time = 93

GAMG:  Solving for Ux, Initial residual = 0.002209995182, Final residual = 1.005108522e-05, No Iterations 1
GAMG:  Solving for Uy, Initial residual = 0.00185120862, Final residual = 8.484002674e-06, No Iterations 1
GAMG:  Solving for p, Initial residual = 0.0008174583831, Final residual = 3.440529788e-06, No Iterations 7
time step continuity errors : sum local = 9.450881536e-06, global = 2.449187505e-07, cumulative = -3.698134117e-05
GAMG:  Solving for epsilon, Initial residual = 0.0003913460348, Final residual = 2.04591775e-06, No Iterations 1
GAMG:  Solving for k, Initial residual = 0.004311165842, Final residual = 2.365930138e-05, No Iterations 1
ExecutionTime = 17.19 s  ClockTime = 17 s

Time = 94

GAMG:  Solving for Ux, Initial residual = 0.002180023712, Final residual = 9.943179002e-06, No Iterations 1
GAMG:  Solving for Uy, Initial residual = 0.001831529326, Final residual = 8.396578948e-06, No Iterations 1
GAMG:  Solving for p, Initial residual = 0.0008008880812, Final residual = 3.550766453e-06, No Iterations 7
time step continuity errors : sum local = 9.710643057e-06, global = 2.99088178e-07, cumulative = -3.6682253e-05
GAMG:  Solving for epsilon, Initial residual = 0.0003882328153, Final residual = 2.015636118e-06, No Iterations 1
GAMG:  Solving for k, Initial residual = 0.004267819366, Final residual = 2.339166736e-05, No Iterations 1
ExecutionTime = 17.37 s  ClockTime = 17 s

Time = 95

GAMG:  Solving for Ux, Initial residual = 0.002150576607, Final residual = 9.836580185e-06, No Iterations 1
GAMG:  Solving for Uy, Initial residual = 0.001811563961, Final residual = 8.30683768e-06, No Iterations 1
GAMG:  Solving for p, Initial residual = 0.0007827771946, Final residual = 3.58621036e-06, No Iterations 7
time step continuity errors : sum local = 9.764587605e-06, global = 3.626559363e-07, cumulative = -3.631959706e-05
GAMG:  Solving for epsilon, Initial residual = 0.0003851854483, Final residual = 1.986541419e-06, No Iterations 1
GAMG:  Solving for k, Initial residual = 0.004226573091, Final residual = 2.313355557e-05, No Iterations 1
ExecutionTime = 17.49 s  ClockTime = 18 s

Time = 96

GAMG:  Solving for Ux, Initial residual = 0.002121580609, Final residual = 9.731427811e-06, No Iterations 1
GAMG:  Solving for Uy, Initial residual = 0.001791997563, Final residual = 8.224469834e-06, No Iterations 1
GAMG:  Solving for p, Initial residual = 0.0007658346411, Final residual = 3.567402084e-06, No Iterations 7
time step continuity errors : sum local = 9.671146443e-06, global = 3.905732382e-07, cumulative = -3.592902382e-05
GAMG:  Solving for epsilon, Initial residual = 0.0003821966294, Final residual = 1.958586854e-06, No Iterations 1
GAMG:  Solving for k, Initial residual = 0.004186449057, Final residual = 2.28843053e-05, No Iterations 1
ExecutionTime = 17.62 s  ClockTime = 18 s

Time = 97

GAMG:  Solving for Ux, Initial residual = 0.002093043676, Final residual = 9.627735779e-06, No Iterations 1
GAMG:  Solving for Uy, Initial residual = 0.001772797191, Final residual = 8.147811207e-06, No Iterations 1
GAMG:  Solving for p, Initial residual = 0.0007512691806, Final residual = 3.514653873e-06, No Iterations 7
time step continuity errors : sum local = 9.487079262e-06, global = 3.90500133e-07, cumulative = -3.553852369e-05
GAMG:  Solving for epsilon, Initial residual = 0.0003792632329, Final residual = 1.931840772e-06, No Iterations 1
GAMG:  Solving for k, Initial residual = 0.004146619906, Final residual = 2.263753973e-05, No Iterations 1
ExecutionTime = 17.76 s  ClockTime = 18 s

Time = 98

GAMG:  Solving for Ux, Initial residual = 0.002064886399, Final residual = 9.525750307e-06, No Iterations 1
GAMG:  Solving for Uy, Initial residual = 0.001753695024, Final residual = 8.073997558e-06, No Iterations 1
GAMG:  Solving for p, Initial residual = 0.0007385036365, Final residual = 3.430560212e-06, No Iterations 7
time step continuity errors : sum local = 9.220580661e-06, global = 3.626126447e-07, cumulative = -3.517591104e-05
GAMG:  Solving for epsilon, Initial residual = 0.0003763887905, Final residual = 1.905482609e-06, No Iterations 1
GAMG:  Solving for k, Initial residual = 0.004107059564, Final residual = 2.239001587e-05, No Iterations 1
ExecutionTime = 17.89 s  ClockTime = 18 s

Time = 99

GAMG:  Solving for Ux, Initial residual = 0.002037099973, Final residual = 9.42583574e-06, No Iterations 1
GAMG:  Solving for Uy, Initial residual = 0.001735040131, Final residual = 7.997180587e-06, No Iterations 1
GAMG:  Solving for p, Initial residual = 0.0007250341164, Final residual = 3.326667111e-06, No Iterations 7
time step continuity errors : sum local = 8.90362251e-06, global = 3.168583446e-07, cumulative = -3.48590527e-05
GAMG:  Solving for epsilon, Initial residual = 0.0003735716382, Final residual = 1.879914148e-06, No Iterations 1
GAMG:  Solving for k, Initial residual = 0.004067704551, Final residual = 2.214306394e-05, No Iterations 1
ExecutionTime = 18.01 s  ClockTime = 18 s

Time = 100

GAMG:  Solving for Ux, Initial residual = 0.002009650033, Final residual = 9.327651256e-06, No Iterations 1
GAMG:  Solving for Uy, Initial residual = 0.001715648097, Final residual = 7.916315087e-06, No Iterations 1
GAMG:  Solving for p, Initial residual = 0.0007085127682, Final residual = 3.216837869e-06, No Iterations 7
time step continuity errors : sum local = 8.573817094e-06, global = 2.74358535e-07, cumulative = -3.458469417e-05
GAMG:  Solving for epsilon, Initial residual = 0.000370810289, Final residual = 1.855196725e-06, No Iterations 1
GAMG:  Solving for k, Initial residual = 0.004028815332, Final residual = 2.190113576e-05, No Iterations 1
ExecutionTime = 18.12 s  ClockTime = 18 s

Time = 101

GAMG:  Solving for Ux, Initial residual = 0.001982475016, Final residual = 9.231091668e-06, No Iterations 1
GAMG:  Solving for Uy, Initial residual = 0.001696708341, Final residual = 7.841442299e-06, No Iterations 1
GAMG:  Solving for p, Initial residual = 0.0006932301398, Final residual = 3.100273051e-06, No Iterations 7
time step continuity errors : sum local = 8.229260351e-06, global = 2.384712155e-07, cumulative = -3.434622295e-05
GAMG:  Solving for epsilon, Initial residual = 0.0003681482896, Final residual = 1.83107865e-06, No Iterations 1
GAMG:  Solving for k, Initial residual = 0.003990424705, Final residual = 2.16713394e-05, No Iterations 1
ExecutionTime = 18.24 s  ClockTime = 18 s

Time = 102

GAMG:  Solving for Ux, Initial residual = 0.001955514041, Final residual = 9.135703598e-06, No Iterations 1
GAMG:  Solving for Uy, Initial residual = 0.001677861273, Final residual = 7.771044407e-06, No Iterations 1
GAMG:  Solving for p, Initial residual = 0.0006809903309, Final residual = 2.99334648e-06, No Iterations 7
time step continuity errors : sum local = 7.913422563e-06, global = 2.161206656e-07, cumulative = -3.413010228e-05
GAMG:  Solving for epsilon, Initial residual = 0.0003657244247, Final residual = 1.807278661e-06, No Iterations 1
GAMG:  Solving for k, Initial residual = 0.003952540395, Final residual = 2.14531431e-05, No Iterations 1
ExecutionTime = 18.36 s  ClockTime = 18 s

Time = 103

GAMG:  Solving for Ux, Initial residual = 0.001928834488, Final residual = 9.040995393e-06, No Iterations 1
GAMG:  Solving for Uy, Initial residual = 0.001659502255, Final residual = 7.701431501e-06, No Iterations 1
GAMG:  Solving for p, Initial residual = 0.0006698149396, Final residual = 2.912334646e-06, No Iterations 7
time step continuity errors : sum local = 7.668800458e-06, global = 2.044626275e-07, cumulative = -3.392563966e-05
GAMG:  Solving for epsilon, Initial residual = 0.0003635523197, Final residual = 1.783857839e-06, No Iterations 1
GAMG:  Solving for k, Initial residual = 0.003915263741, Final residual = 2.124274575e-05, No Iterations 1
ExecutionTime = 18.47 s  ClockTime = 19 s

Time = 104

GAMG:  Solving for Ux, Initial residual = 0.001902852433, Final residual = 8.946828997e-06, No Iterations 1
GAMG:  Solving for Uy, Initial residual = 0.001640846201, Final residual = 7.619907846e-06, No Iterations 1
GAMG:  Solving for p, Initial residual = 0.0006555810702, Final residual = 2.861084946e-06, No Iterations 7
time step continuity errors : sum local = 7.504569479e-06, global = 1.980831614e-07, cumulative = -3.37275565e-05
GAMG:  Solving for epsilon, Initial residual = 0.0003615184684, Final residual = 1.761274704e-06, No Iterations 1
GAMG:  Solving for k, Initial residual = 0.003879092199, Final residual = 2.103615346e-05, No Iterations 1
ExecutionTime = 18.6 s  ClockTime = 19 s

Time = 105

GAMG:  Solving for Ux, Initial residual = 0.001877607831, Final residual = 8.853341277e-06, No Iterations 1
GAMG:  Solving for Uy, Initial residual = 0.001622906945, Final residual = 7.540454495e-06, No Iterations 1
GAMG:  Solving for p, Initial residual = 0.0006413423394, Final residual = 2.861340775e-06, No Iterations 7
time step continuity errors : sum local = 7.476545695e-06, global = 1.982637304e-07, cumulative = -3.352929276e-05
GAMG:  Solving for epsilon, Initial residual = 0.0003595254744, Final residual = 1.739220529e-06, No Iterations 1
GAMG:  Solving for k, Initial residual = 0.003844478752, Final residual = 2.08338482e-05, No Iterations 1
ExecutionTime = 18.72 s  ClockTime = 19 s

Time = 106

GAMG:  Solving for Ux, Initial residual = 0.001852729084, Final residual = 8.761071993e-06, No Iterations 1
GAMG:  Solving for Uy, Initial residual = 0.001605022731, Final residual = 7.468027904e-06, No Iterations 1
GAMG:  Solving for p, Initial residual = 0.0006300254668, Final residual = 2.904099124e-06, No Iterations 7
time step continuity errors : sum local = 7.559694589e-06, global = 2.051730398e-07, cumulative = -3.332411972e-05
GAMG:  Solving for epsilon, Initial residual = 0.0003575644112, Final residual = 1.717293398e-06, No Iterations 1
GAMG:  Solving for k, Initial residual = 0.003810679179, Final residual = 2.063780126e-05, No Iterations 1
ExecutionTime = 18.84 s  ClockTime = 19 s

Time = 107

GAMG:  Solving for Ux, Initial residual = 0.001828181575, Final residual = 8.670041525e-06, No Iterations 1
GAMG:  Solving for Uy, Initial residual = 0.001587668906, Final residual = 7.399607454e-06, No Iterations 1
GAMG:  Solving for p, Initial residual = 0.000619255903, Final residual = 2.953388182e-06, No Iterations 7
time step continuity errors : sum local = 7.659449308e-06, global = 2.149782011e-07, cumulative = -3.310914152e-05
GAMG:  Solving for epsilon, Initial residual = 0.0003556350305, Final residual = 1.695538808e-06, No Iterations 1
GAMG:  Solving for k, Initial residual = 0.003777455193, Final residual = 2.044609411e-05, No Iterations 1
ExecutionTime = 18.95 s  ClockTime = 19 s

Time = 108

GAMG:  Solving for Ux, Initial residual = 0.001803945764, Final residual = 8.580131805e-06, No Iterations 1
GAMG:  Solving for Uy, Initial residual = 0.001570169986, Final residual = 7.328138769e-06, No Iterations 1
GAMG:  Solving for p, Initial residual = 0.0006076656823, Final residual = 3.006806918e-06, No Iterations 7
time step continuity errors : sum local = 7.769386693e-06, global = 2.294075067e-07, cumulative = -3.287973402e-05
GAMG:  Solving for epsilon, Initial residual = 0.0003537301398, Final residual = 1.673946795e-06, No Iterations 1
GAMG:  Solving for k, Initial residual = 0.003744685191, Final residual = 2.025710278e-05, No Iterations 1
ExecutionTime = 19.08 s  ClockTime = 19 s

Time = 109

GAMG:  Solving for Ux, Initial residual = 0.001780041014, Final residual = 8.491200931e-06, No Iterations 1
GAMG:  Solving for Uy, Initial residual = 0.001553012918, Final residual = 7.254605337e-06, No Iterations 1
GAMG:  Solving for p, Initial residual = 0.0005966746365, Final residual = 1.991351584e-06, No Iterations 8
time step continuity errors : sum local = 5.126873377e-06, global = 8.081801515e-08, cumulative = -3.2798916e-05
GAMG:  Solving for epsilon, Initial residual = 0.0003518492722, Final residual = 1.652599176e-06, No Iterations 1
GAMG:  Solving for k, Initial residual = 0.003712330168, Final residual = 2.0069122e-05, No Iterations 1
ExecutionTime = 19.24 s  ClockTime = 19 s

Time = 110

GAMG:  Solving for Ux, Initial residual = 0.001756536526, Final residual = 8.403345467e-06, No Iterations 1
GAMG:  Solving for Uy, Initial residual = 0.001536089599, Final residual = 7.187617111e-06, No Iterations 1
GAMG:  Solving for p, Initial residual = 0.0005857776244, Final residual = 2.222808643e-06, No Iterations 8
time step continuity errors : sum local = 5.702129739e-06, global = 7.807399172e-08, cumulative = -3.272084201e-05
[...]
GAMG:  Solving for Uy, Initial residual = 6.845668588e-05, Final residual = 2.732371289e-07, No Iterations 1
GAMG:  Solving for p, Initial residual = 1.397527844e-05, Final residual = 6.419792469e-08, No Iterations 5
time step continuity errors : sum local = 1.253130972e-07, global = 3.80423752e-09, cumulative = -2.791785089e-05
GAMG:  Solving for epsilon, Initial residual = 4.263279094e-06, Final residual = 2.913876646e-08, No Iterations 1
GAMG:  Solving for k, Initial residual = 2.868625024e-05, Final residual = 1.208732181e-07, No Iterations 1
ExecutionTime = 73.13 s  ClockTime = 73 s

Time = 403

GAMG:  Solving for Ux, Initial residual = 1.42787232e-05, Final residual = 7.734055753e-08, No Iterations 1
GAMG:  Solving for Uy, Initial residual = 6.730589054e-05, Final residual = 2.685195408e-07, No Iterations 1
GAMG:  Solving for p, Initial residual = 1.384399306e-05, Final residual = 6.434548346e-08, No Iterations 5
time step continuity errors : sum local = 1.255685408e-07, global = 4.162386758e-09, cumulative = -2.79136885e-05
GAMG:  Solving for epsilon, Initial residual = 4.12449859e-06, Final residual = 2.807970819e-08, No Iterations 1
GAMG:  Solving for k, Initial residual = 2.705666154e-05, Final residual = 1.17600447e-07, No Iterations 1
ExecutionTime = 73.27 s  ClockTime = 73 s

Time = 404

GAMG:  Solving for Ux, Initial residual = 1.376141204e-05, Final residual = 7.437837261e-08, No Iterations 1
GAMG:  Solving for Uy, Initial residual = 6.613572402e-05, Final residual = 2.637125413e-07, No Iterations 1
GAMG:  Solving for p, Initial residual = 1.371034524e-05, Final residual = 6.487321912e-08, No Iterations 5
time step continuity errors : sum local = 1.265663046e-07, global = 4.613685967e-09, cumulative = -2.790907481e-05
GAMG:  Solving for epsilon, Initial residual = 3.988976466e-06, Final residual = 2.704149915e-08, No Iterations 1
GAMG:  Solving for k, Initial residual = 2.55072629e-05, Final residual = 1.143692615e-07, No Iterations 1
ExecutionTime = 73.42 s  ClockTime = 74 s

Time = 405

GAMG:  Solving for Ux, Initial residual = 1.325441253e-05, Final residual = 7.14795348e-08, No Iterations 1
GAMG:  Solving for Uy, Initial residual = 6.494655917e-05, Final residual = 2.588177539e-07, No Iterations 1
GAMG:  Solving for p, Initial residual = 1.357372317e-05, Final residual = 6.527520369e-08, No Iterations 5
time step continuity errors : sum local = 1.273190453e-07, global = 5.131438235e-09, cumulative = -2.790394338e-05
GAMG:  Solving for epsilon, Initial residual = 3.856774035e-06, Final residual = 2.602465871e-08, No Iterations 1
GAMG:  Solving for k, Initial residual = 2.403715458e-05, Final residual = 1.111765976e-07, No Iterations 1
ExecutionTime = 73.57 s  ClockTime = 74 s

Time = 406

GAMG:  Solving for Ux, Initial residual = 1.275794363e-05, Final residual = 6.86462752e-08, No Iterations 1
GAMG:  Solving for Uy, Initial residual = 6.373891628e-05, Final residual = 2.538424975e-07, No Iterations 1
GAMG:  Solving for p, Initial residual = 1.343428389e-05, Final residual = 6.565288272e-08, No Iterations 5
time step continuity errors : sum local = 1.280248116e-07, global = 5.689357205e-09, cumulative = -2.789825402e-05
GAMG:  Solving for epsilon, Initial residual = 3.72786932e-06, Final residual = 2.502982479e-08, No Iterations 1
GAMG:  Solving for k, Initial residual = 2.264525647e-05, Final residual = 1.080222408e-07, No Iterations 1
ExecutionTime = 73.72 s  ClockTime = 74 s

Time = 407

GAMG:  Solving for Ux, Initial residual = 1.227217027e-05, Final residual = 6.587718913e-08, No Iterations 1
GAMG:  Solving for Uy, Initial residual = 6.25133788e-05, Final residual = 2.487891406e-07, No Iterations 1
GAMG:  Solving for p, Initial residual = 1.329357588e-05, Final residual = 6.601238346e-08, No Iterations 5
time step continuity errors : sum local = 1.286956173e-07, global = 6.264050498e-09, cumulative = -2.789198997e-05
GAMG:  Solving for epsilon, Initial residual = 3.602127085e-06, Final residual = 2.405689639e-08, No Iterations 1
GAMG:  Solving for k, Initial residual = 2.133054079e-05, Final residual = 1.049057129e-07, No Iterations 1
ExecutionTime = 73.85 s  ClockTime = 74 s

Time = 408

GAMG:  Solving for Ux, Initial residual = 1.179723134e-05, Final residual = 6.31722164e-08, No Iterations 1
GAMG:  Solving for Uy, Initial residual = 6.127044651e-05, Final residual = 2.436548684e-07, No Iterations 1
GAMG:  Solving for p, Initial residual = 1.315241623e-05, Final residual = 1.771565902e-08, No Iterations 7
time step continuity errors : sum local = 3.45299959e-08, global = 1.319111938e-09, cumulative = -2.789067086e-05
GAMG:  Solving for epsilon, Initial residual = 3.47936862e-06, Final residual = 2.310553116e-08, No Iterations 1
GAMG:  Solving for k, Initial residual = 2.009211838e-05, Final residual = 1.018297517e-07, No Iterations 1
ExecutionTime = 74 s  ClockTime = 74 s

Time = 409

GAMG:  Solving for Ux, Initial residual = 1.133364676e-05, Final residual = 6.053255303e-08, No Iterations 1
GAMG:  Solving for Uy, Initial residual = 6.001523174e-05, Final residual = 2.384602925e-07, No Iterations 1
GAMG:  Solving for p, Initial residual = 1.300623394e-05, Final residual = 1.795114216e-08, No Iterations 7
time step continuity errors : sum local = 3.498118322e-08, global = 1.335939489e-09, cumulative = -2.788933492e-05
GAMG:  Solving for epsilon, Initial residual = 3.359638608e-06, Final residual = 2.217719664e-08, No Iterations 1
GAMG:  Solving for k, Initial residual = 1.892855646e-05, Final residual = 9.879489036e-08, No Iterations 1
ExecutionTime = 74.16 s  ClockTime = 74 s

Time = 410

GAMG:  Solving for Ux, Initial residual = 1.088086977e-05, Final residual = 5.795780618e-08, No Iterations 1
GAMG:  Solving for Uy, Initial residual = 5.874240389e-05, Final residual = 2.331882247e-07, No Iterations 1
GAMG:  Solving for p, Initial residual = 1.285931261e-05, Final residual = 1.815190064e-08, No Iterations 7
time step continuity errors : sum local = 3.536477122e-08, global = 1.354838857e-09, cumulative = -2.788798008e-05
GAMG:  Solving for epsilon, Initial residual = 3.242875622e-06, Final residual = 2.127041292e-08, No Iterations 1
GAMG:  Solving for k, Initial residual = 1.783875393e-05, Final residual = 9.580193512e-08, No Iterations 1
ExecutionTime = 74.31 s  ClockTime = 74 s

Time = 411

GAMG:  Solving for Ux, Initial residual = 1.043889851e-05, Final residual = 5.544920945e-08, No Iterations 1
GAMG:  Solving for Uy, Initial residual = 5.74528049e-05, Final residual = 2.278388478e-07, No Iterations 1
GAMG:  Solving for p, Initial residual = 1.271304433e-05, Final residual = 1.832344416e-08, No Iterations 7
time step continuity errors : sum local = 3.569154737e-08, global = 1.370886182e-09, cumulative = -2.788660919e-05
GAMG:  Solving for epsilon, Initial residual = 3.128958444e-06, Final residual = 2.03835902e-08, No Iterations 1
GAMG:  Solving for k, Initial residual = 1.682138207e-05, Final residual = 9.285320002e-08, No Iterations 1
ExecutionTime = 74.45 s  ClockTime = 75 s

Time = 412

GAMG:  Solving for Ux, Initial residual = 1.000780574e-05, Final residual = 5.300850799e-08, No Iterations 1
GAMG:  Solving for Uy, Initial residual = 5.614804492e-05, Final residual = 2.224224145e-07, No Iterations 1
GAMG:  Solving for p, Initial residual = 1.256744633e-05, Final residual = 1.847010212e-08, No Iterations 7
time step continuity errors : sum local = 3.596998088e-08, global = 1.387418912e-09, cumulative = -2.788522177e-05
GAMG:  Solving for epsilon, Initial residual = 3.017814928e-06, Final residual = 1.951719608e-08, No Iterations 1
GAMG:  Solving for k, Initial residual = 1.587515921e-05, Final residual = 8.995590579e-08, No Iterations 1
ExecutionTime = 74.61 s  ClockTime = 75 s

Time = 413

GAMG:  Solving for Ux, Initial residual = 9.587802082e-06, Final residual = 5.063601458e-08, No Iterations 1
GAMG:  Solving for Uy, Initial residual = 5.482990617e-05, Final residual = 2.169521288e-07, No Iterations 1
GAMG:  Solving for p, Initial residual = 1.242204717e-05, Final residual = 1.85933255e-08, No Iterations 7
time step continuity errors : sum local = 3.62029317e-08, global = 1.400539341e-09, cumulative = -2.788382123e-05
GAMG:  Solving for epsilon, Initial residual = 2.90935748e-06, Final residual = 1.867239687e-08, No Iterations 1
GAMG:  Solving for k, Initial residual = 1.499893687e-05, Final residual = 8.7108408e-08, No Iterations 1
ExecutionTime = 74.77 s  ClockTime = 75 s

Time = 414

GAMG:  Solving for Ux, Initial residual = 9.179086185e-06, Final residual = 4.833235948e-08, No Iterations 1
GAMG:  Solving for Uy, Initial residual = 5.350077654e-05, Final residual = 2.114396962e-07, No Iterations 1
GAMG:  Solving for p, Initial residual = 1.227669116e-05, Final residual = 1.868498557e-08, No Iterations 7
time step continuity errors : sum local = 3.637459943e-08, global = 1.424862106e-09, cumulative = -2.788239637e-05
GAMG:  Solving for epsilon, Initial residual = 2.803715077e-06, Final residual = 1.785079277e-08, No Iterations 1
GAMG:  Solving for k, Initial residual = 1.419122187e-05, Final residual = 8.431454149e-08, No Iterations 1
ExecutionTime = 74.91 s  ClockTime = 75 s

Time = 415

GAMG:  Solving for Ux, Initial residual = 8.781848171e-06, Final residual = 4.609668138e-08, No Iterations 1
GAMG:  Solving for Uy, Initial residual = 5.21631808e-05, Final residual = 2.058904227e-07, No Iterations 1
GAMG:  Solving for p, Initial residual = 1.213054199e-05, Final residual = 1.873191016e-08, No Iterations 7
time step continuity errors : sum local = 3.6459373e-08, global = 1.464167268e-09, cumulative = -2.78809322e-05
GAMG:  Solving for epsilon, Initial residual = 2.700934945e-06, Final residual = 1.705364311e-08, No Iterations 1
GAMG:  Solving for k, Initial residual = 1.345031085e-05, Final residual = 8.157494593e-08, No Iterations 1
ExecutionTime = 75.06 s  ClockTime = 75 s

Time = 416

GAMG:  Solving for Ux, Initial residual = 8.396227994e-06, Final residual = 4.392841159e-08, No Iterations 1
GAMG:  Solving for Uy, Initial residual = 5.081913367e-05, Final residual = 2.003149834e-07, No Iterations 1
GAMG:  Solving for p, Initial residual = 1.198352278e-05, Final residual = 1.871987643e-08, No Iterations 7
time step continuity errors : sum local = 3.642962432e-08, global = 1.524629468e-09, cumulative = -2.787940757e-05
GAMG:  Solving for epsilon, Initial residual = 2.600755752e-06, Final residual = 1.627991803e-08, No Iterations 1
GAMG:  Solving for k, Initial residual = 1.277455432e-05, Final residual = 7.888702585e-08, No Iterations 1
ExecutionTime = 75.21 s  ClockTime = 75 s

Time = 417

GAMG:  Solving for Ux, Initial residual = 8.022028936e-06, Final residual = 4.182726208e-08, No Iterations 1
GAMG:  Solving for Uy, Initial residual = 4.946991283e-05, Final residual = 1.947266064e-07, No Iterations 1
GAMG:  Solving for p, Initial residual = 1.183502851e-05, Final residual = 1.863174048e-08, No Iterations 7
time step continuity errors : sum local = 3.625204434e-08, global = 1.606922782e-09, cumulative = -2.787780065e-05
GAMG:  Solving for epsilon, Initial residual = 2.503084638e-06, Final residual = 1.55291669e-08, No Iterations 1
GAMG:  Solving for k, Initial residual = 1.216237678e-05, Final residual = 7.625002309e-08, No Iterations 1
ExecutionTime = 75.36 s  ClockTime = 75 s

Time = 418

GAMG:  Solving for Ux, Initial residual = 7.659214306e-06, Final residual = 3.979352766e-08, No Iterations 1
GAMG:  Solving for Uy, Initial residual = 4.811730573e-05, Final residual = 1.89125735e-07, No Iterations 1
GAMG:  Solving for p, Initial residual = 1.168472722e-05, Final residual = 1.845630847e-08, No Iterations 7
time step continuity errors : sum local = 3.590493312e-08, global = 1.703133861e-09, cumulative = -2.787609752e-05
GAMG:  Solving for epsilon, Initial residual = 2.407881215e-06, Final residual = 1.480129619e-08, No Iterations 1
GAMG:  Solving for k, Initial residual = 1.161207225e-05, Final residual = 7.366220253e-08, No Iterations 1
ExecutionTime = 75.5 s  ClockTime = 76 s

Time = 419

GAMG:  Solving for Ux, Initial residual = 7.307734545e-06, Final residual = 3.782734884e-08, No Iterations 1
GAMG:  Solving for Uy, Initial residual = 4.676312851e-05, Final residual = 1.835126746e-07, No Iterations 1
GAMG:  Solving for p, Initial residual = 1.153231963e-05, Final residual = 1.818302984e-08, No Iterations 7
time step continuity errors : sum local = 3.536784013e-08, global = 1.806347628e-09, cumulative = -2.787429117e-05
GAMG:  Solving for epsilon, Initial residual = 2.31518957e-06, Final residual = 1.409641122e-08, No Iterations 1
GAMG:  Solving for k, Initial residual = 1.111679442e-05, Final residual = 7.112410286e-08, No Iterations 1
ExecutionTime = 75.64 s  ClockTime = 76 s

Time = 420

GAMG:  Solving for Ux, Initial residual = 6.967585044e-06, Final residual = 3.592966769e-08, No Iterations 1
GAMG:  Solving for Uy, Initial residual = 4.540866952e-05, Final residual = 1.778965272e-07, No Iterations 1
GAMG:  Solving for p, Initial residual = 1.137784266e-05, Final residual = 1.781589035e-08, No Iterations 7
time step continuity errors : sum local = 3.464859345e-08, global = 1.89934133e-09, cumulative = -2.787239183e-05
GAMG:  Solving for epsilon, Initial residual = 2.224997835e-06, Final residual = 1.34144446e-08, No Iterations 1
GAMG:  Solving for k, Initial residual = 1.067123114e-05, Final residual = 6.863691563e-08, No Iterations 1
ExecutionTime = 75.79 s  ClockTime = 76 s

Time = 421

GAMG:  Solving for Ux, Initial residual = 6.638783272e-06, Final residual = 3.409951583e-08, No Iterations 1
GAMG:  Solving for Uy, Initial residual = 4.405533188e-05, Final residual = 1.722870371e-07, No Iterations 1
GAMG:  Solving for p, Initial residual = 1.122152085e-05, Final residual = 5.602592978e-08, No Iterations 5
time step continuity errors : sum local = 1.089446289e-07, global = 8.83209066e-09, cumulative = -2.786355974e-05
GAMG:  Solving for epsilon, Initial residual = 2.137277575e-06, Final residual = 1.275535589e-08, No Iterations 1
GAMG:  Solving for k, Initial residual = 1.027204441e-05, Final residual = 6.620126163e-08, No Iterations 1
ExecutionTime = 75.92 s  ClockTime = 76 s

Time = 422

GAMG:  Solving for Ux, Initial residual = 6.321552522e-06, Final residual = 3.233592779e-08, No Iterations 1
GAMG:  Solving for Uy, Initial residual = 4.27024114e-05, Final residual = 1.666800819e-07, No Iterations 1
GAMG:  Solving for p, Initial residual = 1.106564111e-05, Final residual = 5.504401908e-08, No Iterations 5
time step continuity errors : sum local = 1.070210418e-07, global = 8.307594512e-09, cumulative = -2.785525214e-05
GAMG:  Solving for epsilon, Initial residual = 2.052051795e-06, Final residual = 1.211783069e-08, No Iterations 1
GAMG:  Solving for k, Initial residual = 9.915546624e-06, Final residual = 6.381638929e-08, No Iterations 1
ExecutionTime = 76.05 s  ClockTime = 76 s

Time = 423

GAMG:  Solving for Ux, Initial residual = 6.015526178e-06, Final residual = 3.06388214e-08, No Iterations 1
GAMG:  Solving for Uy, Initial residual = 4.135438784e-05, Final residual = 1.610998001e-07, No Iterations 1
GAMG:  Solving for p, Initial residual = 1.090830873e-05, Final residual = 5.425158875e-08, No Iterations 5
time step continuity errors : sum local = 1.054669336e-07, global = 7.797826766e-09, cumulative = -2.784745432e-05
GAMG:  Solving for epsilon, Initial residual = 1.969247024e-06, Final residual = 1.150286149e-08, No Iterations 1
GAMG:  Solving for k, Initial residual = 9.598714356e-06, Final residual = 6.148142058e-08, No Iterations 1
ExecutionTime = 76.17 s  ClockTime = 76 s

Time = 424

GAMG:  Solving for Ux, Initial residual = 5.720530894e-06, Final residual = 2.900765343e-08, No Iterations 1
GAMG:  Solving for Uy, Initial residual = 4.0012901e-05, Final residual = 1.555545705e-07, No Iterations 1
GAMG:  Solving for p, Initial residual = 1.074860478e-05, Final residual = 5.367149964e-08, No Iterations 5
time step continuity errors : sum local = 1.043265545e-07, global = 7.366866668e-09, cumulative = -2.784008745e-05
GAMG:  Solving for epsilon, Initial residual = 1.888720184e-06, Final residual = 1.091029196e-08, No Iterations 1
GAMG:  Solving for k, Initial residual = 9.317278764e-06, Final residual = 5.919776003e-08, No Iterations 1
ExecutionTime = 76.28 s  ClockTime = 76 s

Time = 425

GAMG:  Solving for Ux, Initial residual = 5.436481694e-06, Final residual = 2.744076751e-08, No Iterations 1
GAMG:  Solving for Uy, Initial residual = 3.867968846e-05, Final residual = 1.5005604e-07, No Iterations 1
GAMG:  Solving for p, Initial residual = 1.058646667e-05, Final residual = 1.641960927e-08, No Iterations 7
time step continuity errors : sum local = 3.191271274e-08, global = 2.065557125e-09, cumulative = -2.783802189e-05
GAMG:  Solving for epsilon, Initial residual = 1.810370002e-06, Final residual = 1.034016599e-08, No Iterations 1
GAMG:  Solving for k, Initial residual = 9.06293691e-06, Final residual = 5.696760191e-08, No Iterations 1
ExecutionTime = 76.42 s  ClockTime = 76 s

Time = 426

GAMG:  Solving for Ux, Initial residual = 5.16324114e-06, Final residual = 2.593784057e-08, No Iterations 1
GAMG:  Solving for Uy, Initial residual = 3.735842699e-05, Final residual = 1.446143091e-07, No Iterations 1
GAMG:  Solving for p, Initial residual = 1.041887081e-05, Final residual = 1.562946633e-08, No Iterations 7
time step continuity errors : sum local = 3.037362463e-08, global = 1.903359603e-09, cumulative = -2.783611853e-05
GAMG:  Solving for epsilon, Initial residual = 1.734183468e-06, Final residual = 9.794349707e-09, No Iterations 1
GAMG:  Solving for k, Initial residual = 8.832536041e-06, Final residual = 5.479597589e-08, No Iterations 1
ExecutionTime = 76.54 s  ClockTime = 77 s

Time = 427

GAMG:  Solving for Ux, Initial residual = 4.901534944e-06, Final residual = 2.449821707e-08, No Iterations 1
GAMG:  Solving for Uy, Initial residual = 3.604840837e-05, Final residual = 1.392207594e-07, No Iterations 1
GAMG:  Solving for p, Initial residual = 1.024915484e-05, Final residual = 1.467819701e-08, No Iterations 7
time step continuity errors : sum local = 2.852197507e-08, global = 1.679215641e-09, cumulative = -2.783443932e-05
GAMG:  Solving for epsilon, Initial residual = 1.660346363e-06, Final residual = 9.271227461e-09, No Iterations 1
GAMG:  Solving for k, Initial residual = 8.621619907e-06, Final residual = 5.267842152e-08, No Iterations 1
ExecutionTime = 76.67 s  ClockTime = 77 s

Time = 428

GAMG:  Solving for Ux, Initial residual = 4.650383594e-06, Final residual = 2.311940842e-08, No Iterations 1
GAMG:  Solving for Uy, Initial residual = 3.475112587e-05, Final residual = 1.338813289e-07, No Iterations 1
GAMG:  Solving for p, Initial residual = 1.007829324e-05, Final residual = 1.369423667e-08, No Iterations 7
time step continuity errors : sum local = 2.660738017e-08, global = 1.428027765e-09, cumulative = -2.783301129e-05
GAMG:  Solving for epsilon, Initial residual = 1.588677524e-06, Final residual = 8.767291568e-09, No Iterations 1
GAMG:  Solving for k, Initial residual = 8.426463747e-06, Final residual = 5.061453163e-08, No Iterations 1
ExecutionTime = 76.81 s  ClockTime = 77 s

Time = 429

GAMG:  Solving for Ux, Initial residual = 4.40955514e-06, Final residual = 2.180031586e-08, No Iterations 1
GAMG:  Solving for Uy, Initial residual = 3.346838557e-05, Final residual = 1.286031184e-07, No Iterations 1
GAMG:  Solving for p, Initial residual = 9.907065467e-06, Final residual = 1.277234264e-08, No Iterations 7
time step continuity errors : sum local = 2.481390537e-08, global = 1.18403491e-09, cumulative = -2.783182725e-05
GAMG:  Solving for epsilon, Initial residual = 1.519062798e-06, Final residual = 8.281938846e-09, No Iterations 1
GAMG:  Solving for k, Initial residual = 8.245533362e-06, Final residual = 4.860422978e-08, No Iterations 1
ExecutionTime = 76.93 s  ClockTime = 77 s


SIMPLE solution converged in 429 iterations

End

