/*---------------------------------------------------------------------------*\
| =========                 |                                                 |
| \\      /  F ield         | OpenFOAM: The Open Source CFD Toolbox           |
|  \\    /   O peration     | Version:  2312                                  |
|   \\  /    A nd           | Website:  www.openfoam.com                      |
|    \\/     M anipulation  |                                                 |
\*---------------------------------------------------------------------------*/
Build  : _e651d635-20240208 OPENFOAM=2312 patch=240220 version=2312
Arch   : "LSB;label=32;scalar=64"
Exec   : blockMesh
Date   : Oct 24 2025
Time   : 22:33:48
Host   : summit
PID    : 13221
I/O    : uncollated
Case   : /home/vecerniv/my_libs/lutils-rewrite/tests/bfs/simpleFoam_kE
nProcs : 1
trapFpe: Floating point exception trapping enabled (FOAM_SIGFPE).
fileModificationChecking : Monitoring run-time modified files using timeStampMaster (fileModificationSkew 5, maxFileModificationPolls 20)
allowSystemOperations : Allowing user-supplied system call operations

// * * * * * * * * * * * * * * * * * * * * * * * * * * * * * * * * * * * * * //
Create time

Creating block mesh from "system/blockMeshDict"
--> FOAM IOWarning :
    Found [v1012] 'convertToMeters' entry instead of 'scale' in dictionary "system/blockMeshDict"

    This keyword is 156 months old.

Creating block edges
No non-planar block faces defined
Creating topology blocks

Creating topology patches - from boundary section

Creating block mesh topology

Check topology

	Basic statistics
		Number of internal faces : 2
		Number of boundary faces : 14
		Number of defined boundary faces : 14
		Number of undefined boundary faces : 0
	Checking patch -> block consistency

Creating block offsets
Creating merge list (topological search)...

Creating polyMesh from blockMesh
Creating patches
Creating cells
Creating points with scale (1 1 1)
    Block 0 cell size :
        i : 0.001400560224 .. 0.001400560224
        j : 0.001403508772 .. 0.001403508772
        k : 0.0014 .. 0.0014

    Block 1 cell size :
        i : 0.001400560224 .. 0.001400560224
        j : 0.001403508772 .. 0.001403508772
        k : 0.0014 .. 0.0014

    Block 2 cell size :
        i : 0.001400560224 .. 0.001400560224
        j : 0.001428571429 .. 0.001428571429
        k : 0.0014 .. 0.0014

No patch pairs to merge

Writing polyMesh with 0 cellZones
----------------
Mesh Information
----------------
  boundingBox: (0 0 0) (1.5 0.09 0.0014)
  nPoints: 129364
  nCells: 63546
  nFaces: 255319
  nInternalFaces: 125957
----------------
Patches
----------------
  patch 0 (start: 125957 size: 127092) name: frontAndBack
  patch 1 (start: 253049 size: 57) name: inlet
  patch 2 (start: 253106 size: 64) name: outlet
  patch 3 (start: 253170 size: 2149) name: walls

End

