/*---------------------------------------------------------------------------*\
| =========                 |                                                 |
| \\      /  F ield         | OpenFOAM: The Open Source CFD Toolbox           |
|  \\    /   O peration     | Version:  2312                                  |
|   \\  /    A nd           | Website:  www.openfoam.com                      |
|    \\/     M anipulation  |                                                 |
\*---------------------------------------------------------------------------*/
Build  : _e651d635-20240208 OPENFOAM=2312 patch=240220 version=2312
Arch   : "LSB;label=32;scalar=64"
Exec   : blockMesh
Date   : Jul 26 2025
Time   : 19:26:38
Host   : summit
PID    : 18310
I/O    : uncollated
Case   : /home/vecerniv/tmg/openHFDIBRANS/bfs/default_mesh/36000/openHFDIBRANS_kE
nProcs : 1
trapFpe: Floating point exception trapping enabled (FOAM_SIGFPE).
fileModificationChecking : Monitoring run-time modified files using timeStampMaster (fileModificationSkew 5, maxFileModificationPolls 20)
allowSystemOperations : Allowing user-supplied system call operations

// * * * * * * * * * * * * * * * * * * * * * * * * * * * * * * * * * * * * * //
Create time

Creating block mesh from "system/blockMeshDict"
--> FOAM IOWarning :
    Found [v1012] 'convertToMeters' entry instead of 'scale' in dictionary "system/blockMeshDict"

    This keyword is 156 months old.

Creating block edges
No non-planar block faces defined
Creating topology blocks

Creating topology patches - from boundary section

Creating block mesh topology

Check topology

	Basic statistics
		Number of internal faces : 4
		Number of boundary faces : 16
		Number of defined boundary faces : 16
		Number of undefined boundary faces : 0
	Checking patch -> block consistency

Creating block offsets
Creating merge list (topological search)...

Creating polyMesh from blockMesh
Creating patches
Creating cells
Creating points with scale (1 1 1)
    Block 0 cell size :
        i : 0.0012998713 .. 0.0012998713
        j : 0.00136375 .. 0.00136375
        k : 0.0013 .. 0.0013

    Block 1 cell size :
        i : 0.0012998713 .. 0.0012998713
        j : 0.001296557377 .. 0.001296557377
        k : 0.0013 .. 0.0013

    Block 2 cell size :
        i : 0.001299734748 .. 0.001299734748
        j : 0.001296557377 .. 0.001296557377
        k : 0.0013 .. 0.0013

    Block 3 cell size :
        i : 0.001299734748 .. 0.001299734748
        j : 0.00136375 .. 0.00136375
        k : 0.0013 .. 0.0013

Adding cell zones
    0	lambdaZone
No patch pairs to merge

Writing polyMesh with 1 cellZones
----------------
Mesh Information
----------------
  boundingBox: (0 0 0) (1.5 0.09 0.0013)
  nPoints: 161700
  nCells: 79626
  nFaces: 319727
  nInternalFaces: 158029
----------------
Cell Zones
----------------
  zone 0 (size: 6216) name: lambdaZone
----------------
Patches
----------------
  patch 0 (start: 158029 size: 159252) name: frontAndBack
  patch 1 (start: 317281 size: 61) name: inlet
  patch 2 (start: 317342 size: 69) name: outlet
  patch 3 (start: 317411 size: 1531) name: walls
  patch 4 (start: 318942 size: 785) name: wallInsideLambda

End

