/*---------------------------------------------------------------------------*\
| =========                 |                                                 |
| \\      /  F ield         | OpenFOAM: The Open Source CFD Toolbox           |
|  \\    /   O peration     | Version:  2312                                  |
|   \\  /    A nd           | Website:  www.openfoam.com                      |
|    \\/     M anipulation  |                                                 |
\*---------------------------------------------------------------------------*/
Build  : _e651d635-20240208 OPENFOAM=2312 patch=240220 version=2312
Arch   : "LSB;label=32;scalar=64"
Exec   : createLambdaBFSV3 1.0 0.0013 0.01 0.0013
Date   : Jul 26 2025
Time   : 19:26:38
Host   : summit
PID    : 18313
I/O    : uncollated
Case   : /home/vecerniv/tmg/openHFDIBRANS/bfs/default_mesh/36000/openHFDIBRANS_kE
nProcs : 1
trapFpe: Floating point exception trapping enabled (FOAM_SIGFPE).
fileModificationChecking : Monitoring run-time modified files using timeStampMaster (fileModificationSkew 5, maxFileModificationPolls 20)
allowSystemOperations : Allowing user-supplied system call operations

// * * * * * * * * * * * * * * * * * * * * * * * * * * * * * * * * * * * * * //
Create time

Create mesh for time = 0

769 0.0002509653
0.406732509 0.0002509653
1546 0.0002509653
0.406732509 0.0002509653
2323 0.0002509653
0.406732509 0.0002509653
3100 0.0002509653
0.406732509 0.0002509653
3877 0.0002509653
0.406732509 0.0002509653
4654 0.0002509653
0.406732509 0.0002509653
5431 0.0002509653
0.406732509 0.0002509653
6208 0.0002509653
0.406732509 0.0002509653
End

